*SPEF "IEEE 1481-1998"
*DESIGN "shift_adder"
*DATE "Mon Mar 30 09:30:09 2015"
*VENDOR "Silicon Perspective, A Cadence Company"
*PROGRAM "Encounter"
*VERSION "09.12-s159_1"
*DESIGN_FLOW "PIN_CAP NONE" "NAME_SCOPE LOCAL"
*DIVIDER /
*DELIMITER :
*BUS_DELIMITER []
*T_UNIT 1 NS
*C_UNIT 1 PF
*R_UNIT 1 OHM
*L_UNIT 1 HENRY

*NAME_MAP

*1 clock__L2_N0
*2 clock__L1_N0
*3 clock
*4 reset
*5 lefthand[7]
*6 lefthand[6]
*7 lefthand[5]
*8 lefthand[4]
*9 lefthand[3]
*10 lefthand[2]
*11 lefthand[1]
*12 lefthand[0]
*13 righthand[7]
*14 righthand[6]
*15 righthand[5]
*16 righthand[4]
*17 righthand[3]
*18 righthand[2]
*19 righthand[1]
*20 righthand[0]
*21 result[7]
*22 result[6]
*23 result[5]
*24 result[4]
*25 result[3]
*26 result[2]
*27 result[1]
*28 result[0]
*29 n_0
*30 n_1
*31 n_2
*32 n_3
*33 n_4
*34 n_5
*35 n_6
*36 n_7
*37 n_8
*38 n_9
*39 n_10
*40 n_11
*41 n_12
*42 n_13
*43 n_14
*44 n_15
*45 n_16
*46 n_17
*47 n_18
*48 n_19
*49 n_20
*50 n_21
*51 n_22
*52 n_23
*53 n_24
*54 n_25
*55 n_26
*56 n_27
*57 n_28
*58 n_29
*59 n_30
*60 n_31
*61 n_32
*62 n_33
*63 n_34
*64 n_35
*65 n_36
*66 n_37
*67 n_38
*68 n_39
*69 n_40
*70 n_41
*71 clock__L2_I0
*72 clock__L1_I0
*73 result_reg\[7\]
*74 g434
*75 result_reg\[6\]
*76 g436
*77 g438
*78 result_reg\[5\]
*79 g439
*80 g441
*81 result_reg\[4\]
*82 g442
*83 g444
*84 result_reg\[3\]
*85 g445
*86 result_reg\[2\]
*87 g447
*88 result_reg\[1\]
*89 g448
*90 g450
*91 g451
*92 result_reg\[0\]
*93 g456
*94 g453
*95 g454
*96 g459
*97 g461
*98 g463
*99 g465
*100 g457
*101 g458
*102 g460
*103 g462
*104 g464
*105 g466
*106 g467
*107 g468
*108 g455
*109 g469
*110 g479
*111 g470
*112 g471
*113 g472
*114 g473
*115 g474
*116 g476
*117 g481
*118 g478
*119 g475
*120 g480
*121 g477
*122 g482


*PORTS

*3 I *C 32 14
*4 I *C 17 0
*5 I *C 32 9
*6 I *C 20 0
*7 I *C 0 7
*8 I *C 0 9
*9 I *C 0 13
*10 I *C 32 15
*11 I *C 19 30
*12 I *C 17 30
*13 I *C 32 9
*14 I *C 19 0
*15 I *C 0 7
*16 I *C 0 9
*17 I *C 0 13
*18 I *C 32 15
*19 I *C 19 30
*20 I *C 16 30
*21 O *C 19 0
*22 O *C 16 0
*23 O *C 11 0
*24 O *C 0 15
*25 O *C 0 21
*26 O *C 32 12
*27 O *C 32 17
*28 O *C 0 17


*D_NET *1 0.00384699

*CONN
*I *88:CK I *C 21 17 *L 0.00163 *D QDFFX1
*I *92:CK I *C 16 17 *L 0.00163 *D QDFFX1
*I *75:CK I *C 20 12 *L 0.00163 *D QDFFX1
*I *73:CK I *C 23 10 *L 0.00163 *D QDFFX1
*I *81:CK I *C 17 15 *L 0.00163 *D QDFFX1
*I *71:O O *C 12 12 *L 0 *D INVCKX16
*I *78:CK I *C 14 10 *L 0.00163 *D QDFFX1
*I *86:CK I *C 26 12 *L 0.00163 *D QDFFX1
*I *84:CK I *C 10 21 *L 0.00163 *D QDFFX1

*CAP
1 *1:0 2.75095e-05
2 *1:1 0.000233831
3 *1:3 0.000271619
4 *1:4 0.000206321
5 *1:6 0.000380266
6 *1:7 0.000108647
7 *1:10 0.000108647
8 *1:11 0.000258038
9 *1:14 0.000151302
10 *1:15 5.5019e-05
11 *1:16 0.00014939
12 *1:18 0.00028885
13 *1:19 5.5019e-05
14 *1:20 6.87737e-05
15 *1:21 0.000137547
16 *1:24 6.87737e-05
17 *1:25 0.000108647
18 *1:28 0.000122641
19 *1:29 0.000108647
20 *1:30 0.000122641
21 *1:38 0.000407428
22 *1:39 0.000407428

*RES
1 *1:41 *84:CK 4
2 *1:40 *1:41 4
3 *1:39 *1:40 4
4 *1:38 *1:39 6.3
5 *1:37 *1:38 4
6 *1:35 *1:37 4
7 *1:34 *86:CK 4
8 *71:O *1:35 4
9 *1:32 *1:34 4
10 *1:30 *78:CK 4
11 *1:29 *1:32 4
12 *1:28 *71:O 4
13 *1:28 *1:30 1.89
14 *1:25 *1:29 1.68
15 *1:24 *1:28 4
16 *1:23 *81:CK 4
17 *1:22 *73:CK 4
18 *1:21 *1:25 4
19 *1:20 *1:24 1.05
20 *1:19 *1:23 4
21 *1:18 *1:22 4
22 *1:18 *1:21 2.1
23 *1:16 *1:20 4
24 *1:15 *1:19 0.84
25 *1:14 *1:18 2.31
26 *1:13 *75:CK 4
27 *1:11 *1:16 2.31
28 *1:11 *1:15 4
29 *1:10 *1:14 4
30 *1:9 *1:13 4
31 *1:8 *92:CK 4
32 *1:7 *1:11 1.68
33 *1:6 *1:10 1.68
34 *1:6 *1:9 4
35 *1:4 *1:8 4
36 *1:4 *1:7 4
37 *1:3 *1:6 4.2
38 *1:2 *88:CK 4
39 *1:1 *1:4 3.15
40 *1:1 *1:3 4
41 *1:0 *1:2 4
42 *1:0 *1:1 0.42
*END

*D_NET *2 0.00046488

*CONN
*I *72:O O *C 18 15 *L 0 *D INVCKX20
*I *71:I I *C 15 12 *L 0.0293 *D INVCKX16

*CAP
1 *2:2 0.000123793
2 *2:3 0.000123793
3 *2:4 0.000108647
4 *2:5 0.000108647

*RES
1 *2:7 *71:I 4
2 *2:6 *2:7 4
3 *2:5 *2:6 4
4 *2:4 *2:5 1.68
5 *2:3 *2:4 4
6 *2:2 *2:3 1.89
7 *2:1 *2:2 4
8 *72:O *2:1 4
*END

*D_NET *3 0.000710645

*CONN
*P *3 I *C 32 14 *L 0
*I *72:I I *C 25 15 *L 0.0366 *D INVCKX20

*CAP
1 *3 0.000341696
2 *3:1 0.000341696
3 *3:2 1.36268e-05
4 *3:3 1.36268e-05

*RES
1 *3:3 *72:I 4
2 *3:2 *3:3 0.21
3 *3:1 *3:2 4
4 *3 *3:1 5.25
*END

*D_NET *4 0.00518283

*CONN
*I *74:EB I *C 23 7 *L 0.00239 *D MUXB2X1
*I *91:EB I *C 24 20 *L 0.00239 *D MUXB2X1
*I *89:EB I *C 23 20 *L 0.00239 *D MUXB2X1
*P *4 I *C 17 0 *L 0
*I *76:EB I *C 17 9 *L 0.00239 *D MUXB2X1
*I *79:EB I *C 12 7 *L 0.00239 *D MUXB2X1
*I *82:EB I *C 12 15 *L 0.00239 *D MUXB2X1
*I *95:EB I *C 14 20 *L 0.00239 *D MUXB2X1
*I *85:EB I *C 11 20 *L 0.00239 *D MUXB2X1

*CAP
1 *4:0 2.72536e-05
2 *4:1 0.000288849
3 *4:2 2.72536e-05
4 *4:3 0.000624723
5 *4:4 0.000288849
6 *4:5 1.29702e-05
7 *4:6 0.000624723
8 *4:7 0.00014939
9 *74:EB 1.29702e-05
10 *4:9 6.87737e-05
11 *4:10 6.79047e-05
12 *4:11 8.14856e-05
13 *4:12 4.12642e-05
14 *4:13 2.75095e-05
15 *4:14 2.75095e-05
16 *4:18 0.000247585
17 *4:19 0.000258909
18 *4:22 1.36268e-05
19 *4:23 0.000220076
20 *4 0.000258909
21 *4:25 1.36268e-05
22 *4:26 0.000109014
23 *4:27 1.29702e-05
24 *4:28 2.72536e-05
25 *4:29 9.53875e-05
26 *76:EB 1.29702e-05
27 *4:31 0.00034067
28 *4:32 1.29702e-05
29 *4:33 0.000572325
30 *79:EB 1.29702e-05
31 *4:35 0.000231655
32 *4:36 5.45071e-05
33 *4:37 0.000137547
34 *4:38 4.08804e-05
35 *4:39 8.25284e-05
36 *4:40 5.5019e-05

*RES
1 *4:43 *85:EB 4
2 *4:42 *95:EB 4
3 *4:40 *4:43 4
4 *4:39 *4:42 4
5 *4:38 *82:EB 4
6 *4:37 *4:40 0.84
7 *4:37 *4:39 1.26
8 *4:36 *4:38 0.63
9 *4:35 *4:37 4
10 *4:33 *4:36 0.21
11 *4:33 *4:35 3.57
12 *4:32 *79:EB 0.268333
13 *4:31 *4:33 5.04
14 *4:29 *4:32 4
15 *4:28 *4:31 0.21
16 *4:27 *76:EB 0.268333
17 *4:26 *4:29 1.47
18 *4:26 *4:28 0.21
19 *4:25 *4:27 4
20 *4:23 *4:26 4
21 *4:22 *4:25 0.21
22 *4:19 *4 3.99
23 *4:18 *4:23 3.36
24 *4:18 *4:22 4
25 *4:17 *89:EB 4
26 *4:16 *91:EB 4
27 *4:15 *4:19 4
28 *4:14 *4:18 0.42
29 *4:13 *4:17 4
30 *4:12 *4:16 4
31 *4:11 *4:15 4
32 *4:10 *4:14 4
33 *4:9 *4:13 0.42
34 *4:9 *4:12 0.63
35 *4:7 *4:11 1.26
36 *4:7 *4:10 1.05
37 *4:6 *4:9 4
38 *4:5 *74:EB 0.268333
39 *4:4 *4:7 4
40 *4:3 *4:6 9.66
41 *4:2 *4:5 4
42 *4:1 *4:4 4.41
43 *4:1 *4:3 4
44 *4:0 *4:2 0.42
45 *4:0 *4:1 4
*END

*D_NET *5 0.000735273

*CONN
*P *5 I *C 32 9 *L 0
*I *107:A1 I *C 25 9 *L 0.0027 *D MAOI1X1
*I *107:B2 I *C 24 9 *L 0.00146 *D MAOI1X1

*CAP
1 *5 0.000341696
2 *5:1 0.000341696
3 *107:A1 2.59405e-05
4 *107:B2 2.59405e-05

*RES
1 *107:A1 *107:B2 0.536667
2 *5:2 *107:A1 4
3 *5:1 *5:2 4
4 *5 *5:1 5.25
*END

*D_NET *6 0.000709361

*CONN
*I *114:I1 I *C 20 7 *L 0.00161 *D AN2X1
*P *6 I *C 20 0 *L 0
*I *115:I1 I *C 21 6 *L 0.00222 *D OR2X1

*CAP
1 *6:0 1.36268e-05
2 *6:1 0.000313416
3 *6:3 4.12642e-05
4 *6 0.000299789
5 *6:5 4.12642e-05

*RES
1 *6:6 *115:I1 4
2 *6:5 *6:6 4
3 *6:3 *6:5 0.63
4 *6:1 *6 4.62
5 *6:1 *6:3 4
6 *6:0 *114:I1 4
7 *6:0 *6:1 0.21
*END

*D_NET *7 0.000659972

*CONN
*P *7 I *C 0 7 *L 0
*I *118:I1 I *C 7 7 *L 0.00161 *D AN2X1
*I *117:I1 I *C 6 6 *L 0.00222 *D OR2X1

*CAP
1 *7:0 4.12642e-05
2 *7:1 0.000316359
3 *7:3 1.36268e-05
4 *7 0.000275095
5 *7:6 1.36268e-05

*RES
1 *7:6 *117:I1 4
2 *7:3 *7:6 0.21
3 *7:2 *118:I1 4
4 *7:1 *7 4.2
5 *7:1 *7:3 4
6 *7:0 *7:2 4
7 *7:0 *7:1 0.63
*END

*D_NET *8 0.000839986

*CONN
*P *8 I *C 0 9 *L 0
*I *111:I1 I *C 5 9 *L 0.00161 *D AN2X1
*I *116:I1 I *C 9 9 *L 0.00222 *D OR2X1

*CAP
1 *8 0.000137547
2 *8:1 0.000137547
3 *8:3 0.000103762
4 *111:I1 0.000103762
5 *8:6 0.000165057
6 *8:7 0.000165057
7 *8:8 1.36268e-05
8 *8:9 1.36268e-05

*RES
1 *8:9 *116:I1 4
2 *8:8 *8:9 0.21
3 *8:7 *8:8 4
4 *8:6 *8:7 2.52
5 *8:5 *8:6 4
6 *111:I1 *8:5 4
7 *8:3 *111:I1 2.14667
8 *8:2 *8:3 4
9 *8:1 *8:2 4
10 *8 *8:1 2.1
*END

*D_NET *9 0.000876244

*CONN
*I *120:I1 I *C 5 15 *L 0.00161 *D AN2X1
*P *9 I *C 0 13 *L 0
*I *121:I1 I *C 6 12 *L 0.00222 *D OR2X1

*CAP
1 *9:0 5.45071e-05
2 *120:I1 0.000233464
3 *9:2 5.45071e-05
4 *9:3 0.000233464
5 *9:4 2.75095e-05
6 *9:5 5.45071e-05
7 *9:6 2.75095e-05
8 *9:7 5.45071e-05
9 *9:8 6.81339e-05
10 *9:10 6.81339e-05

*RES
1 *9:10 *121:I1 4
2 *9:8 *9:10 1.05
3 *9:7 *9 4
4 *9:6 *9:8 4
5 *9:5 *9:7 0.84
6 *9:4 *9:6 0.42
7 *9:3 *9:5 4
8 *9:2 *9:4 4
9 *120:I1 *9:3 4.83
10 *9:0 *9:2 0.84
11 *9:0 *120:I1 4
*END

*D_NET *10 0.002054

*CONN
*I *119:I1 I *C 17 18 *L 0.00222 *D OR2X1
*P *10 I *C 32 15 *L 0
*I *109:I1 I *C 16 20 *L 0.00161 *D AN2X1

*CAP
1 *10:0 9.53875e-05
2 *10:1 0.000231655
3 *10:2 6.87737e-05
4 *10:4 0.000136268
5 *10:5 6.87737e-05
6 *10:6 0.000699319
7 *10:7 2.72536e-05
8 *10 0.000699319
9 *10:9 2.72536e-05

*RES
1 *10:9 *109:I1 4
2 *10:7 *10:9 0.42
3 *10:6 *10 10.71
4 *10:5 *10:7 4
5 *10:4 *10:6 4
6 *10:2 *10:5 1.05
7 *10:1 *10:4 2.1
8 *10:1 *119:I1 4
9 *10:0 *10:2 4
10 *10:0 *10:1 1.47
*END

*D_NET *11 0.000898909

*CONN
*I *113:I1 I *C 19 23 *L 0.00273 *D NR2X1
*I *110:I1 I *C 19 20 *L 0.00234 *D ND2X1
*P *11 I *C 19 30 *L 0

*CAP
1 *11:1 0.000272536
2 *11:2 0.000163521
3 *11:3 0.000122641
4 *11:4 0.000176919
5 *11 0.000163292

*RES
1 *11:4 *11 2.52
2 *11:3 *110:I1 4
3 *11:2 *11:4 0.21
4 *11:1 *11:3 1.89
5 *11:1 *11:2 2.31
6 *113:I1 *11:1 4
*END

*D_NET *12 0.00114204

*CONN
*I *112:I1 I *C 18 23 *L 0.00234 *D ND2X1
*P *12 I *C 17 30 *L 0
*I *95:S I *C 15 21 *L 0.00285 *D MUXB2X1

*CAP
1 *12:0 5.45071e-05
2 *12:1 0.000326859
3 *12:2 8.17607e-05
4 *12:3 0.000285979
5 *12:5 6.81339e-05
6 *12:6 3.89107e-05
7 *12:7 9.62832e-05
8 *12:8 3.89107e-05
9 *12:9 9.62832e-05
10 *12:10 1.35809e-05
11 *12:11 1.36268e-05
12 *12 1.35809e-05
13 *12:13 1.36268e-05

*RES
1 *12:13 *95:S 4
2 *12:11 *12:13 0.21
3 *12:10 *12 0.21
4 *12:9 *12:11 4
5 *12:8 *12:10 4
6 *12:7 *12:9 1.47
7 *12:6 *12:8 0.805
8 *12:5 *12:7 4
9 *12:3 *12:6 4
10 *12:2 *12:5 1.05
11 *12:1 *112:I1 4
12 *12:1 *12:3 4.41
13 *12:0 *12:2 0.21
14 *12:0 *12:1 0.63
*END

*D_NET *13 0.000871449

*CONN
*I *107:A2 I *C 25 9 *L 0.00282 *D MAOI1X1
*P *13 I *C 32 9 *L 0
*I *107:B1 I *C 23 9 *L 0.00181 *D MAOI1X1

*CAP
1 *13:0 1.36268e-05
2 *13:1 1.36268e-05
3 *13:2 8.25284e-05
4 *13:4 1.35809e-05
5 *13:5 8.25284e-05
6 *13:6 1.35809e-05
7 *13:7 1.36268e-05
8 *13:8 0.000312361
9 *13:9 1.36268e-05
10 *13 0.000312361

*RES
1 *13:9 *107:B1 4
2 *13:8 *13 4.83
3 *13:7 *13:9 0.21
4 *13:6 *13:8 4
5 *13:5 *13:7 4
6 *13:4 *13:6 0.21
7 *13:2 *13:5 1.26
8 *13:2 *13:4 4
9 *13:1 *107:A2 4
10 *13:0 *13:2 4
11 *13:0 *13:1 0.21
*END

*D_NET *14 0.000709361

*CONN
*I *114:I2 I *C 19 6 *L 0.00194 *D AN2X1
*P *14 I *C 19 0 *L 0
*I *115:I2 I *C 20 6 *L 0.00176 *D OR2X1

*CAP
1 *14:0 1.36268e-05
2 *14:1 0.000299789
3 *14:3 4.12642e-05
4 *14 0.000286163
5 *14:5 4.12642e-05
6 *14:6 1.36268e-05
7 *14:7 1.36268e-05

*RES
1 *14:7 *115:I2 4
2 *14:6 *14:7 0.21
3 *14:5 *14:6 4
4 *14:3 *14:5 0.63
5 *14:1 *14 4.41
6 *14:1 *14:3 4
7 *14:0 *114:I2 4
8 *14:0 *14:1 0.21
*END

*D_NET *15 0.000761218

*CONN
*I *118:I2 I *C 7 6 *L 0.00194 *D AN2X1
*I *117:I2 I *C 5 6 *L 0.00176 *D OR2X1
*P *15 I *C 0 7 *L 0

*CAP
1 *15:0 0.000123793
2 *15:1 0.000123793
3 *15:4 1.35809e-05
4 *15:6 2.59405e-05
5 *15:7 1.35809e-05
6 *117:I2 2.59405e-05
7 *15:9 0.000217295
8 *15 0.000217295

*RES
1 *15:9 *15 3.36
2 *15:7 *15:9 4
3 *15:6 *117:I2 0.536667
4 *15:4 *15:7 0.21
5 *15:3 *15:6 4
6 *15:2 *118:I2 4
7 *15:1 *15:4 4
8 *15:1 *15:3 4
9 *15:0 *15:2 4
10 *15:0 *15:1 1.89
*END

*D_NET *16 0.000793256

*CONN
*I *111:I2 I *C 6 9 *L 0.00194 *D AN2X1
*I *116:I2 I *C 8 9 *L 0.00176 *D OR2X1
*P *16 I *C 0 9 *L 0

*CAP
1 *16:1 0.000220076
2 *16:3 0.000110038
3 *16:4 0.000110038
4 *16:6 1.35809e-05
5 *16:8 1.35809e-05
6 *16:9 0.000162971
7 *16 0.000162971

*RES
1 *16:9 *16 2.52
2 *16:8 *16:9 4
3 *16:6 *16:8 0.21
4 *16:5 *116:I2 4
5 *16:4 *16:6 4
6 *16:3 *16:5 4
7 *16:1 *16:4 1.68
8 *16:1 *16:3 1.68
9 *16:0 *111:I2 4
10 *16:0 *16:1 4
*END

*D_NET *17 0.000880073

*CONN
*I *121:I2 I *C 5 12 *L 0.00176 *D OR2X1
*I *120:I2 I *C 6 15 *L 0.00194 *D AN2X1
*P *17 I *C 0 13 *L 0

*CAP
1 *121:I2 1.29702e-05
2 *17:1 0.000194554
3 *17:2 8.17607e-05
4 *17:3 0.000181583
5 *17:4 8.17607e-05
6 *17:5 4.08804e-05
7 *17:6 4.12642e-05
8 *17:7 4.08804e-05
9 *17:8 4.12642e-05
10 *17:10 2.72536e-05
11 *17:11 1.35809e-05
12 *17:12 2.72536e-05
13 *17:13 1.35809e-05
14 *17:15 4.07428e-05
15 *17 4.07428e-05

*RES
1 *17:15 *17 0.63
2 *17:13 *17:15 4
3 *17:12 *120:I2 4
4 *17:11 *17:13 0.21
5 *17:10 *17:12 0.42
6 *17:9 *17:11 4
7 *17:8 *17:10 4
8 *17:7 *17:9 4
9 *17:6 *17:8 0.63
10 *17:5 *17:7 0.63
11 *17:4 *17:6 4
12 *17:3 *17:5 4
13 *17:2 *17:4 1.26
14 *17:1 *17:3 3.75667
15 *17:1 *17:2 4
16 *121:I2 *17:1 0.268333
*END

*D_NET *18 0.00203616

*CONN
*P *18 I *C 32 15 *L 0
*I *119:I2 I *C 17 18 *L 0.00176 *D OR2X1
*I *109:I2 I *C 16 20 *L 0.00194 *D AN2X1

*CAP
1 *18 0.000719789
2 *18:1 0.000719789
3 *18:2 5.43237e-05
4 *18:3 5.43237e-05
5 *18:5 9.53875e-05
6 *18:6 9.53875e-05
7 *119:I2 2.59405e-05
8 *18:8 2.59405e-05
9 *18:9 8.17607e-05
10 *18:10 9.53875e-05
11 *18:11 4.08804e-05
12 *18:12 2.72536e-05

*RES
1 *18:12 *109:I2 4
2 *18:11 *18:12 0.42
3 *18:10 *18:11 0.21
4 *18:9 *18:10 1.26
5 *18:8 *18:9 4
6 *119:I2 *18:8 0.536667
7 *18:6 *119:I2 4
8 *18:5 *18:6 1.47
9 *18:4 *18:5 4
10 *18:3 *18:4 4
11 *18:2 *18:3 0.84
12 *18:1 *18:2 4
13 *18 *18:1 11.13
*END

*D_NET *19 0.00109104

*CONN
*I *113:I2 I *C 20 23 *L 0.00223 *D NR2X1
*P *19 I *C 19 30 *L 0
*I *110:I2 I *C 18 20 *L 0.00277 *D ND2X1

*CAP
1 *19:1 0.000381367
2 *19:2 0.000285979
3 *19:3 9.53875e-05
4 *19:4 2.71619e-05
5 *19:5 8.25284e-05
6 *19:6 2.71619e-05
7 *19:7 8.25284e-05
8 *19:8 1.35809e-05
9 *19:9 4.08804e-05
10 *19 1.35809e-05
11 *19:11 4.08804e-05

*RES
1 *19:11 *110:I2 4
2 *19:9 *19:11 0.63
3 *19:8 *19 0.21
4 *19:7 *19:9 4
5 *19:6 *19:8 4
6 *19:5 *19:7 1.26
7 *19:4 *19:6 0.42
8 *19:3 *19:5 4
9 *19:2 *19:4 4
10 *19:1 *19:3 1.47
11 *19:1 *19:2 4.41
12 *113:I2 *19:1 4
*END

*D_NET *20 0.00148769

*CONN
*I *112:I2 I *C 17 23 *L 0.00277 *D ND2X1
*P *20 I *C 16 30 *L 0
*I *95:A I *C 14 21 *L 0.00199 *D MUXB2X1
*I *122:I I *C 18 20 *L 0.00276 *D INVX1

*CAP
1 *20:0 9.07917e-05
2 *20:1 0.000116732
3 *20:2 0.000122641
4 *112:I2 2.59405e-05
5 *20:4 0.00029956
6 *20:5 0.000122641
7 *20:6 0.000136268
8 *20 0.00029956
9 *20:9 0.000136268
10 *20:10 5.5019e-05
11 *20:11 5.5019e-05
12 *20:12 1.36268e-05
13 *20:13 1.36268e-05

*RES
1 *20:13 *122:I 4
2 *20:12 *20:13 0.21
3 *20:11 *20:12 4
4 *20:10 *20:11 0.84
5 *20:9 *20:10 4
6 *20:6 *20:9 2.1
7 *20:5 *95:A 4
8 *20:4 *20 4.62
9 *112:I2 *20:6 4
10 *20:2 *20:5 1.89
11 *20:1 *20:4 4
12 *20:1 *112:I2 0.536667
13 *20:0 *20:2 4
14 *20:0 *20:1 1.87833
*END

*D_NET *21 0.00084266

*CONN
*I *73:Q O *C 19 10 *L 0 *D QDFFX1
*P *21 O *C 19 0 *L 0

*CAP
1 *21:1 9.53875e-05
2 *21:2 9.53875e-05
3 *21:4 0.000325942
4 *21 0.000325942

*RES
1 *21:4 *21 5.04
2 *21:3 *21:4 4
3 *21:2 *21:3 4
4 *21:1 *21:2 1.47
5 *73:Q *21:1 4
*END

*D_NET *22 0.00111703

*CONN
*I *75:Q O *C 16 12 *L 0 *D QDFFX1
*P *22 O *C 16 0 *L 0

*CAP
1 *22:1 0.000231655
2 *22:2 0.000231655
3 *22:4 5.43237e-05
4 *22:5 5.43237e-05
5 *22:7 0.000272536
6 *22 0.000272536

*RES
1 *22:7 *22 4.2
2 *22:6 *22:7 4
3 *22:5 *22:6 4
4 *22:4 *22:5 0.84
5 *22:3 *22:4 4
6 *22:2 *22:3 4
7 *22:1 *22:2 3.57
8 *75:Q *22:1 4
*END

*D_NET *23 0.000899368

*CONN
*I *78:Q O *C 11 10 *L 0 *D QDFFX1
*P *23 O *C 11 0 *L 0

*CAP
1 *23:1 2.72536e-05
2 *23:2 4.08804e-05
3 *23:3 6.81339e-05
4 *23:4 6.81339e-05
5 *23:5 0.000354296
6 *23 0.00034067

*RES
1 *23:5 *23 5.25
2 *23:4 *23:5 0.21
3 *23:3 *23:4 0.84
4 *23:2 *23:3 0.21
5 *23:1 *23:2 0.42
6 *78:Q *23:1 4
*END

*D_NET *24 0.00131916

*CONN
*I *81:Q O *C 13 15 *L 0 *D QDFFX1
*P *24 O *C 0 15 *L 0

*CAP
1 *24:1 1.36268e-05
2 *24:2 1.36268e-05
3 *24:3 0.000192566
4 *24:4 0.000192566
5 *24:5 4.07428e-05
6 *24:6 4.07428e-05
7 *24:7 0.000412642
8 *24 0.000412642

*RES
1 *24:7 *24 6.3
2 *24:6 *24:7 4
3 *24:5 *24:6 0.63
4 *24:4 *24:5 4
5 *24:3 *24:4 2.94
6 *24:2 *24:3 4
7 *24:1 *24:2 0.21
8 *81:Q *24:1 4
*END

*D_NET *25 0.00052268

*CONN
*I *84:Q O *C 6 21 *L 0 *D QDFFX1
*P *25 O *C 0 21 *L 0

*CAP
1 *25:2 0.00026134
2 *25 0.00026134

*RES
1 *25:2 *25 3.99
2 *25:1 *25:2 4
3 *84:Q *25:1 4
*END

*D_NET *26 0.00098574

*CONN
*I *86:Q O *C 22 12 *L 0 *D QDFFX1
*P *26 O *C 32 12 *L 0

*CAP
1 *26:1 1.36268e-05
2 *26:2 1.36268e-05
3 *26:3 0.000220076
4 *26:4 0.000233831
5 *26:5 0.000259167
6 *26 0.000245413

*RES
1 *26:5 *26 3.78
2 *26:4 *26:5 0.21
3 *26:3 *26:4 3.36
4 *26:2 *26:3 4
5 *26:1 *26:2 0.21
6 *86:Q *26:1 4
*END

*D_NET *27 0.000655882

*CONN
*I *88:Q O *C 25 17 *L 0 *D QDFFX1
*P *27 O *C 32 17 *L 0

*CAP
1 *27:2 0.000327941
2 *27 0.000327941

*RES
1 *27:2 *27 5.04
2 *27:1 *27:2 4
3 *88:Q *27:1 4
*END

*D_NET *28 0.00110038

*CONN
*I *92:Q O *C 12 17 *L 0 *D QDFFX1
*P *28 O *C 0 17 *L 0

*CAP
1 *28:2 0.00055019
2 *28 0.00055019

*RES
1 *28:2 *28 8.4
2 *28:1 *28:2 4
3 *92:Q *28:1 4
*END

*D_NET *29 0.000220076

*CONN
*I *122:O O *C 17 20 *L 0 *D INVX1
*I *95:B I *C 15 20 *L 0.00197 *D MUXB2X1

*CAP
1 *29:2 0.000110038
2 *29:3 0.000110038

*RES
1 *29:4 *95:B 4
2 *29:3 *29:4 4
3 *29:2 *29:3 1.68
4 *29:1 *29:2 4
5 *122:O *29:1 4
*END

*D_NET *30 0.000245282

*CONN
*I *108:O O *C 26 23 *L 0 *D INVXLP
*I *91:B I *C 25 20 *L 0.00197 *D MUXB2X1

*CAP
1 *30:1 2.72536e-05
2 *30:2 4.08804e-05
3 *30:3 9.53875e-05
4 *30:4 8.17607e-05

*RES
1 *30:4 *91:B 4
2 *30:3 *30:4 1.26
3 *30:2 *30:3 0.21
4 *30:1 *30:2 0.42
5 *108:O *30:1 4
*END

*D_NET *31 0.000546573

*CONN
*I *106:I I *C 26 6 *L 0.00276 *D INVX1
*I *74:A I *C 23 6 *L 0.00199 *D MUXB2X1
*I *107:O O *C 26 9 *L 0 *D MAOI1X1

*CAP
1 *31:0 0.000151302
2 *31:1 0.000109014
3 *31:2 0.000151302
4 *31:3 0.000109014
5 *31:6 1.29702e-05
6 *107:O 1.29702e-05

*RES
1 *31:6 *107:O 0.268333
2 *31:5 *74:A 4
3 *31:3 *31:6 4
4 *31:2 *31:5 4
5 *31:1 *106:I 4
6 *31:1 *31:3 1.68
7 *31:0 *31:2 2.31
8 *31:0 *31:1 4
*END

*D_NET *32 0.000325407

*CONN
*I *106:O O *C 25 7 *L 0 *D INVX1
*I *74:B I *C 22 7 *L 0.00197 *D MUXB2X1

*CAP
1 *106:O 3.89107e-05
2 *32:1 3.89107e-05
3 *32:3 0.000123793
4 *32:4 0.000123793

*RES
1 *32:5 *74:B 4
2 *32:4 *32:5 4
3 *32:3 *32:4 1.89
4 *32:2 *32:3 4
5 *32:1 *32:2 4
6 *106:O *32:1 0.805
*END

*D_NET *33 0.000491043

*CONN
*I *105:B1 I *C 7 10 *L 0.00201 *D OR2B1XLP
*I *83:B2 I *C 8 12 *L 0.00196 *D AO12X1
*I *116:O O *C 9 10 *L 0 *D OR2X1

*CAP
1 *33:0 4.08804e-05
2 *33:1 0.000109014
3 *33:2 2.72536e-05
4 *33:3 9.53875e-05
5 *33:4 9.62832e-05
6 *33:6 1.29702e-05
7 *33:7 9.62832e-05
8 *83:B2 1.29702e-05

*RES
1 *33:9 *116:O 4
2 *33:7 *33:9 4
3 *33:6 *83:B2 0.268333
4 *33:4 *33:7 1.47
5 *33:3 *33:6 4
6 *33:2 *105:B1 4
7 *33:2 *33:4 4
8 *33:1 *33:3 1.47
9 *33:0 *33:2 0.42
10 *33:0 *33:1 0.21
*END

*D_NET *34 0.00040877

*CONN
*I *105:I1 I *C 7 10 *L 0.00118 *D OR2B1XLP
*I *111:O O *C 7 10 *L 0 *D AN2X1
*I *83:A1 I *C 8 12 *L 0.00192 *D AO12X1

*CAP
1 *34:0 1.36268e-05
2 *34:1 1.36268e-05
3 *105:I1 1.29702e-05
4 *34:3 6.87737e-05
5 *111:O 1.29702e-05
6 *34:5 6.87737e-05
7 *34:6 0.000109014
8 *34:7 0.000109014

*RES
1 *34:7 *83:A1 4
2 *34:6 *34:7 1.68
3 *34:5 *34:6 4
4 *34:3 *34:5 1.05
5 *105:I1 *111:O 0.268333
6 *34:1 *34:3 4
7 *34:0 *105:I1 4
8 *34:0 *34:1 0.21
*END

*D_NET *35 0.000596151

*CONN
*I *87:B2 I *C 7 15 *L 0.00196 *D AO12X1
*I *121:O O *C 7 13 *L 0 *D OR2X1
*I *104:B1 I *C 8 17 *L 0.00201 *D OR2B1XLP

*CAP
1 *35:0 1.29702e-05
2 *87:B2 1.29702e-05
3 *35:2 0.000136268
4 *35:3 2.72536e-05
5 *35:4 0.000109014
6 *35:5 2.75095e-05
7 *35:6 2.59405e-05
8 *35:7 2.75095e-05
9 *121:O 2.59405e-05
10 *35:9 9.53875e-05
11 *35:10 9.53875e-05

*RES
1 *35:10 *104:B1 4
2 *35:9 *35:10 1.47
3 *35:7 *35:9 4
4 *35:6 *121:O 0.536667
5 *35:5 *35:7 0.42
6 *35:4 *35:6 4
7 *35:3 *35:5 4
8 *35:2 *35:4 1.68
9 *35:2 *35:3 0.42
10 *35:0 *35:2 4
11 *35:0 *87:B2 0.268333
*END

*D_NET *36 0.000407201

*CONN
*I *120:O O *C 7 15 *L 0 *D AN2X1
*I *87:A1 I *C 8 15 *L 0.00192 *D AO12X1
*I *104:I1 I *C 7 17 *L 0.00118 *D OR2B1XLP

*CAP
1 *36:0 2.72536e-05
2 *36:1 5.5019e-05
3 *36:2 0.000122641
4 *36:3 5.5019e-05
5 *36:4 9.53875e-05
6 *36:7 2.59405e-05
7 *104:I1 2.59405e-05

*RES
1 *36:7 *104:I1 0.536667
2 *36:6 *87:A1 4
3 *36:4 *36:7 4
4 *36:3 *36:6 4
5 *36:2 *120:O 4
6 *36:2 *36:4 1.47
7 *36:1 *36:3 0.84
8 *36:0 *36:2 0.42
9 *36:0 *36:1 4
*END

*D_NET *37 0.000549934

*CONN
*I *77:B2 I *C 16 7 *L 0.00196 *D AO12X1
*I *115:O O *C 21 7 *L 0 *D OR2X1
*I *103:B1 I *C 18 6 *L 0.00201 *D OR2B1XLP

*CAP
1 *37:0 9.62832e-05
2 *37:1 0.00026134
3 *37:3 0.000165057
4 *37:4 1.36268e-05
5 *37:7 1.36268e-05

*RES
1 *37:7 *103:B1 4
2 *37:6 *115:O 4
3 *37:4 *37:7 0.21
4 *37:3 *37:6 4
5 *37:2 *77:B2 4
6 *37:1 *37:4 4
7 *37:1 *37:3 2.52
8 *37:0 *37:2 4
9 *37:0 *37:1 1.47
*END

*D_NET *38 0.000247585

*CONN
*I *77:A1 I *C 16 6 *L 0.00192 *D AO12X1
*I *103:I1 I *C 17 6 *L 0.00118 *D OR2B1XLP
*I *114:O O *C 19 6 *L 0 *D AN2X1

*CAP
1 *38:0 5.5019e-05
2 *38:1 0.000123793
3 *38:3 6.87737e-05

*RES
1 *38:6 *114:O 4
2 *38:4 *103:I1 4
3 *38:3 *38:6 4
4 *38:2 *77:A1 4
5 *38:1 *38:4 4
6 *38:1 *38:3 1.05
7 *38:0 *38:2 4
8 *38:0 *38:1 0.84
*END

*D_NET *39 0.00101215

*CONN
*I *90:B2 I *C 20 18 *L 0.00196 *D AO12X1
*I *119:O O *C 18 18 *L 0 *D OR2X1
*I *102:B1 I *C 25 15 *L 0.00201 *D OR2B1XLP

*CAP
1 *39:1 0.000136268
2 *39:2 6.87737e-05
3 *39:3 0.000136268
4 *39:4 6.87737e-05
5 *39:5 0.000275095
6 *39:7 0.000275095
7 *39:8 2.59405e-05
8 *119:O 2.59405e-05

*RES
1 *39:9 *102:B1 4
2 *39:8 *119:O 0.536667
3 *39:7 *39:9 4
4 *39:6 *39:8 4
5 *39:5 *39:7 4.2
6 *39:4 *39:6 4
7 *39:3 *39:5 4
8 *39:2 *39:4 1.05
9 *39:1 *39:3 2.1
10 *39:1 *39:2 4
11 *90:B2 *39:1 4
*END

*D_NET *40 0.00123358

*CONN
*I *90:A1 I *C 19 18 *L 0.00192 *D AO12X1
*I *109:O O *C 17 20 *L 0 *D AN2X1
*I *102:I1 I *C 25 15 *L 0.00118 *D OR2B1XLP

*CAP
1 *40:1 0.000149895
2 *40:2 0.000109014
3 *40:3 4.08804e-05
4 *40:4 0.000123793
5 *40:5 0.00026134
6 *40:6 0.000123793
7 *40:7 0.00026134
8 *40:9 8.17607e-05
9 *40:11 8.17607e-05

*RES
1 *40:11 *102:I1 4
2 *40:9 *40:11 1.26
3 *40:8 *109:O 4
4 *40:7 *40:9 4
5 *40:6 *40:8 4
6 *40:5 *40:7 3.99
7 *40:4 *40:6 1.89
8 *40:3 *40:5 4
9 *40:2 *40:4 4
10 *40:1 *40:3 0.63
11 *40:1 *40:2 1.68
12 *90:A1 *40:1 4
*END

*D_NET *41 0.000519064

*CONN
*I *101:B1 I *C 20 21 *L 0.00201 *D OR2B1XLP
*I *110:O O *C 19 20 *L 0 *D ND2X1
*I *94:A1 I *C 21 23 *L 0.00205 *D OAI12X1

*CAP
1 *41:0 6.87737e-05
2 *41:1 2.75095e-05
3 *41:2 0.000110038
4 *41:3 1.37547e-05
5 *41:5 5.5019e-05
6 *41:6 0.000109014
7 *41:9 0.000109014
8 *41:11 1.29702e-05
9 *94:A1 1.29702e-05

*RES
1 *41:11 *94:A1 0.268333
2 *41:9 *41:11 4
3 *41:8 *110:O 4
4 *41:6 *41:9 1.68
5 *41:5 *41:8 4
6 *41:4 *101:B1 4
7 *41:3 *41:6 4
8 *41:2 *41:5 0.84
9 *41:2 *41:4 4
10 *41:1 *41:3 0.21
11 *41:0 *41:2 0.84
12 *41:0 *41:1 0.21
*END

*D_NET *42 0.000429492

*CONN
*I *113:O O *C 19 23 *L 0 *D NR2X1
*I *94:B1 I *C 21 24 *L 0.00229 *D OAI12X1
*I *101:I1 I *C 19 21 *L 0.00118 *D OR2B1XLP

*CAP
1 *42:0 5.1881e-05
2 *42:1 4.08804e-05
3 *113:O 5.1881e-05
4 *42:3 4.08804e-05
5 *42:4 1.36268e-05
6 *42:5 1.29702e-05
7 *42:6 2.72536e-05
8 *94:B1 1.29702e-05
9 *42:8 9.53875e-05
10 *42:9 8.17607e-05

*RES
1 *42:9 *101:I1 4
2 *42:8 *42:9 1.26
3 *42:6 *42:8 0.21
4 *42:5 *94:B1 0.268333
5 *42:4 *42:6 0.21
6 *42:3 *42:5 4
7 *113:O *42:4 4
8 *42:1 *42:3 0.63
9 *42:0 *113:O 1.07333
10 *42:0 *42:1 4
*END

*D_NET *43 0.000549934

*CONN
*I *101:O O *C 20 21 *L 0 *D OR2B1XLP
*I *91:S I *C 26 21 *L 0.00285 *D MUXB2X1

*CAP
1 *43:2 0.00026134
2 *43:3 0.00026134
3 *43:4 1.36268e-05
4 *43:5 1.36268e-05

*RES
1 *43:5 *91:S 4
2 *43:4 *43:5 0.21
3 *43:3 *43:4 4
4 *43:2 *43:3 3.99
5 *43:1 *43:2 4
6 *101:O *43:1 4
*END

*D_NET *44 0.000797263

*CONN
*I *100:B1 I *C 9 6 *L 0.00201 *D OR2B1XLP
*I *117:O O *C 7 7 *L 0 *D OR2X1
*I *80:B2 I *C 14 7 *L 0.00196 *D AO12X1

*CAP
1 *44:0 0.000192566
2 *44:1 0.000288849
3 *44:2 8.25284e-05
4 *44:3 2.72536e-05
5 *44:4 0.000110038
6 *44:5 6.87737e-05
7 *44:6 2.72536e-05

*RES
1 *44:8 *80:B2 4
2 *44:7 *117:O 4
3 *44:6 *100:B1 4
4 *44:5 *44:8 4
5 *44:4 *44:7 4
6 *44:3 *44:6 0.42
7 *44:2 *44:5 1.05
8 *44:1 *44:4 1.68
9 *44:1 *44:3 4
10 *44:0 *44:2 0.21
11 *44:0 *44:1 2.73
*END

*D_NET *45 0.000630893

*CONN
*I *118:O O *C 8 6 *L 0 *D AN2X1
*I *100:I1 I *C 8 6 *L 0.00118 *D OR2B1XLP
*I *80:A1 I *C 14 6 *L 0.00192 *D AO12X1

*CAP
1 *118:O 1.29702e-05
2 *100:I1 1.29702e-05
3 *45:3 0.000288849
4 *45:4 0.000288849
5 *45:5 1.36268e-05
6 *45:6 1.36268e-05

*RES
1 *45:6 *80:A1 4
2 *45:5 *45:6 0.21
3 *45:4 *45:5 4
4 *45:3 *45:4 4.41
5 *45:2 *45:3 4
6 *100:I1 *45:2 4
7 *118:O *100:I1 0.268333
*END

*D_NET *46 0.000683387

*CONN
*I *99:I I *C 9 15 *L 0.00276 *D INVX1
*I *82:B I *C 10 15 *L 0.00197 *D MUXB2X1
*I *105:O O *C 8 10 *L 0 *D OR2B1XLP

*CAP
1 *46:0 6.87737e-05
2 *46:1 6.87737e-05
3 *46:2 9.53875e-05
4 *46:5 9.53875e-05
5 *46:7 4.12642e-05
6 *46:8 4.12642e-05
7 *46:9 0.000136268
8 *46:10 0.000136268

*RES
1 *46:10 *105:O 4
2 *46:9 *46:10 2.1
3 *46:8 *46:9 4
4 *46:7 *46:8 0.63
5 *46:5 *46:7 4
6 *46:3 *82:B 4
7 *46:2 *46:5 1.47
8 *46:2 *99:I 4
9 *46:1 *46:3 4
10 *46:0 *46:2 4
11 *46:0 *46:1 1.05
*END

*D_NET *47 0.000165057

*CONN
*I *99:O O *C 9 15 *L 0 *D INVX1
*I *82:A I *C 11 15 *L 0.00199 *D MUXB2X1

*CAP
1 *47:2 8.25284e-05
2 *47:3 8.25284e-05

*RES
1 *47:4 *82:A 4
2 *47:3 *47:4 4
3 *47:2 *47:3 1.26
4 *47:1 *47:2 4
5 *99:O *47:1 4
*END

*D_NET *48 0.000593747

*CONN
*I *104:O O *C 8 17 *L 0 *D OR2B1XLP
*I *98:I I *C 10 18 *L 0.00276 *D INVX1
*I *85:B I *C 12 20 *L 0.00197 *D MUXB2X1

*CAP
1 *104:O 7.78215e-05
2 *98:I 7.78215e-05
3 *48:2 2.72536e-05
4 *48:3 2.72536e-05
5 *48:4 0.000110038
6 *48:5 0.000110038
7 *48:6 8.17607e-05
8 *48:7 8.17607e-05

*RES
1 *48:7 *85:B 4
2 *48:6 *48:7 1.26
3 *48:5 *48:6 4
4 *48:4 *48:5 1.68
5 *48:3 *48:4 4
6 *48:2 *48:3 0.42
7 *98:I *48:2 4
8 *104:O *98:I 1.61
*END

*D_NET *49 0.000324417

*CONN
*I *98:O O *C 11 18 *L 0 *D INVX1
*I *85:A I *C 11 20 *L 0.00199 *D MUXB2X1

*CAP
1 *98:O 2.59405e-05
2 *49:1 2.59405e-05
3 *49:2 1.36268e-05
4 *49:3 0.000136268
5 *49:4 0.000122641

*RES
1 *49:4 *85:A 4
2 *49:3 *49:4 1.89
3 *49:2 *49:3 0.21
4 *49:1 *49:2 4
5 *98:O *49:1 0.536667
*END

*D_NET *50 0.00046587

*CONN
*I *97:I I *C 18 9 *L 0.00276 *D INVX1
*I *103:O O *C 18 7 *L 0 *D OR2B1XLP
*I *76:B I *C 16 9 *L 0.00197 *D MUXB2X1

*CAP
1 *50:0 0.000137547
2 *50:1 9.53875e-05
3 *50:2 0.000137547
4 *50:4 9.53875e-05

*RES
1 *50:5 *76:B 4
2 *50:4 *103:O 4
3 *50:2 *50:5 4
4 *50:1 *50:4 1.47
5 *50:1 *97:I 4
6 *50:0 *50:2 2.1
7 *50:0 *50:1 4
*END

*D_NET *51 0.000137547

*CONN
*I *97:O O *C 18 9 *L 0 *D INVX1
*I *76:A I *C 16 9 *L 0.00199 *D MUXB2X1

*CAP
1 *51:2 6.87737e-05
2 *51:3 6.87737e-05

*RES
1 *51:4 *76:A 4
2 *51:3 *51:4 4
3 *51:2 *51:3 1.05
4 *51:1 *51:2 4
5 *97:O *51:1 4
*END

*D_NET *52 0.000930972

*CONN
*I *96:I I *C 26 18 *L 0.00276 *D INVX1
*I *102:O O *C 26 15 *L 0 *D OR2B1XLP
*I *89:B I *C 21 20 *L 0.00197 *D MUXB2X1

*CAP
1 *52:0 0.000233831
2 *52:1 0.000122641
3 *52:2 0.000233831
4 *52:4 0.000122641
5 *52:5 0.000109014
6 *52:7 0.000109014

*RES
1 *52:7 *89:B 4
2 *52:5 *52:7 1.68
3 *52:4 *102:O 4
4 *52:2 *52:5 4
5 *52:1 *52:4 1.89
6 *52:1 *96:I 4
7 *52:0 *52:2 3.57
8 *52:0 *52:1 4
*END

*D_NET *53 0.000548142

*CONN
*I *96:O O *C 25 18 *L 0 *D INVX1
*I *89:A I *C 22 20 *L 0.00199 *D MUXB2X1

*CAP
1 *53:2 0.000165057
2 *53:3 0.000165057
3 *53:4 0.000109014
4 *53:5 0.000109014

*RES
1 *53:5 *89:A 4
2 *53:4 *53:5 1.68
3 *53:3 *53:4 4
4 *53:2 *53:3 2.52
5 *53:1 *53:2 4
6 *96:O *53:1 4
*END

*D_NET *54 0.000410595

*CONN
*I *95:O O *C 13 20 *L 0 *D MUXB2X1
*I *92:D I *C 15 18 *L 0.00122 *D QDFFX1

*CAP
1 *54:1 1.36268e-05
2 *54:2 1.36268e-05
3 *54:3 9.62832e-05
4 *54:4 9.62832e-05
5 *54:5 9.53875e-05
6 *54:6 9.53875e-05

*RES
1 *54:6 *92:D 4
2 *54:5 *54:6 1.47
3 *54:4 *54:5 4
4 *54:3 *54:4 1.47
5 *54:2 *54:3 4
6 *54:1 *54:2 0.21
7 *95:O *54:1 4
*END

*D_NET *55 0.00108815

*CONN
*I *91:A I *C 25 21 *L 0.00199 *D MUXB2X1
*I *108:I I *C 25 24 *L 0.00213 *D INVXLP
*I *94:B2 I *C 20 24 *L 0.00262 *D OAI12X1
*I *112:O O *C 17 24 *L 0 *D ND2X1

*CAP
1 *55:0 0.000136268
2 *55:1 0.000247585
3 *55:2 0.000136268
4 *55:3 2.75095e-05
5 *55:4 0.00028885
6 *55:8 6.87737e-05
7 *55:10 1.29702e-05
8 *55:11 1.36268e-05
9 *94:B2 1.29702e-05
10 *55:13 1.36268e-05
11 *55:14 6.48512e-05
12 *112:O 6.48512e-05

*RES
1 *55:14 *112:O 1.34167
2 *55:13 *55:14 4
3 *55:11 *55:13 0.21
4 *55:10 *94:B2 0.268333
5 *55:8 *55:11 4
6 *55:7 *55:10 4
7 *55:6 *108:I 4
8 *55:4 *55:8 1.05
9 *55:4 *55:7 4
10 *55:3 *55:6 4
11 *55:2 *91:A 4
12 *55:1 *55:4 3.36
13 *55:1 *55:3 0.42
14 *55:0 *55:2 2.1
15 *55:0 *55:1 4
*END

*D_NET *56 0.000163488

*CONN
*I *100:O O *C 9 6 *L 0 *D OR2B1XLP
*I *93:I I *C 10 7 *L 0.00276 *D INVX1
*I *79:B I *C 11 7 *L 0.00197 *D MUXB2X1

*CAP
1 *100:O 1.29702e-05
2 *93:I 1.29702e-05
3 *56:3 6.87737e-05
4 *56:4 6.87737e-05

*RES
1 *56:5 *79:B 4
2 *56:4 *56:5 4
3 *56:3 *56:4 1.05
4 *56:2 *56:3 4
5 *93:I *56:2 4
6 *100:O *93:I 0.268333
*END

*D_NET *57 0.000165057

*CONN
*I *93:O O *C 10 6 *L 0 *D INVX1
*I *79:A I *C 12 6 *L 0.00199 *D MUXB2X1

*CAP
1 *57:2 8.25284e-05
2 *57:3 8.25284e-05

*RES
1 *57:4 *79:A 4
2 *57:3 *57:4 4
3 *57:2 *57:3 1.26
4 *57:1 *57:2 4
5 *93:O *57:1 4
*END

*D_NET *58 0.000410595

*CONN
*I *91:O O *C 23 20 *L 0 *D MUXB2X1
*I *88:D I *C 21 18 *L 0.00122 *D QDFFX1

*CAP
1 *58:2 9.62832e-05
2 *58:3 9.62832e-05
3 *58:4 0.000109014
4 *58:5 0.000109014

*RES
1 *58:5 *88:D 4
2 *58:4 *58:5 1.68
3 *58:3 *58:4 4
4 *58:2 *58:3 1.47
5 *58:1 *58:2 4
6 *91:O *58:1 4
*END

*D_NET *59 0.000571524

*CONN
*I *89:S I *C 21 21 *L 0.00285 *D MUXB2X1
*I *94:O O *C 21 23 *L 0 *D OAI12X1
*I *90:B1 I *C 20 18 *L 0.00165 *D AO12X1

*CAP
1 *59:1 0.000204402
2 *59:2 9.53875e-05
3 *59:3 0.000122641
4 *59:4 2.75095e-05
5 *59:5 4.08804e-05
6 *59:6 2.75095e-05
7 *59:7 2.72536e-05
8 *59:9 1.29702e-05
9 *90:B1 1.29702e-05

*RES
1 *59:9 *90:B1 0.268333
2 *59:8 *94:O 4
3 *59:7 *59:9 4
4 *59:6 *59:8 4
5 *59:5 *59:7 0.42
6 *59:4 *59:6 0.42
7 *59:3 *59:5 0.21
8 *59:2 *59:4 4
9 *59:1 *59:3 1.68
10 *59:1 *59:2 1.47
11 *89:S *59:1 4
*END

*D_NET *60 0.00098292

*CONN
*I *89:O O *C 23 20 *L 0 *D MUXB2X1
*I *86:D I *C 25 12 *L 0.00122 *D QDFFX1

*CAP
1 *60:1 0.000395177
2 *60:2 0.000395177
3 *60:3 9.62832e-05
4 *60:4 9.62832e-05

*RES
1 *60:5 *86:D 4
2 *60:4 *60:5 4
3 *60:3 *60:4 1.47
4 *60:2 *60:3 4
5 *60:1 *60:2 6.09