*SPEF "IEEE 1481-1998"
*DESIGN "multiplier"
*DATE "Thu Jun 11 13:56:16 2015"
*VENDOR "Silicon Perspective, A Cadence Company"
*PROGRAM "Encounter"
*VERSION "09.12-s159_1"
*DESIGN_FLOW "PIN_CAP NONE" "NAME_SCOPE LOCAL"
*DIVIDER /
*DELIMITER :
*BUS_DELIMITER []
*T_UNIT 1 NS
*C_UNIT 1 PF
*R_UNIT 1 OHM
*L_UNIT 1 HENRY

*NAME_MAP

*1 clock__L2_N0
*2 clock__L1_N0
*3 x[3]
*4 x[2]
*5 x[1]
*6 x[0]
*7 y[3]
*8 y[2]
*9 y[1]
*10 y[0]
*11 clock
*12 enable
*13 z[7]
*14 z[6]
*15 z[5]
*16 z[4]
*17 z[3]
*18 z[2]
*19 z[1]
*20 z[0]
*21 pp1[4]
*22 pp1[3]
*23 pp1[2]
*24 pp1[1]
*25 pp0[3]
*26 pp0[2]
*27 pp0[1]
*28 pp0[0]
*29 pp3[6]
*30 pp3[5]
*31 pp3[4]
*32 pp3[3]
*33 pp2[5]
*34 pp2[4]
*35 pp2[3]
*36 pp2[2]
*37 n_0
*38 n_1
*39 n_2
*40 n_3
*41 n_4
*42 n_5
*43 n_6
*44 n_7
*45 n_8
*46 n_9
*47 n_10
*48 n_11
*49 n_12
*50 n_13
*51 n_14
*52 n_15
*53 n_16
*54 n_17
*55 n_18
*56 n_19
*57 n_20
*58 n_21
*59 n_22
*60 n_23
*61 n_24
*62 n_25
*63 n_26
*64 n_27
*65 n_28
*66 n_29
*67 n_30
*68 n_31
*69 n_32
*70 n_33
*71 n_34
*72 n_35
*73 n_36
*74 n_37
*75 n_38
*76 n_39
*77 n_40
*78 clock__L2_I0
*79 clock__L1_I0
*80 z_reg\[7\]
*81 z_reg\[6\]
*82 g1151
*83 g1153
*84 z_reg\[5\]
*85 g1155
*86 z_reg\[4\]
*87 g1156
*88 g1157
*89 z_reg\[3\]
*90 g1159
*91 z_reg\[2\]
*92 g1160
*93 g1164
*94 g1166
*95 g1163
*96 g1165
*97 g1162
*98 g1167
*99 g1170
*100 g1172
*101 z_reg\[1\]
*102 g1168
*103 g1169
*104 g1171
*105 g1176
*106 g1198
*107 g1174
*108 g1175
*109 g1177
*110 pp0_reg\[3\]
*111 pp0_reg\[2\]
*112 pp2_reg\[2\]
*113 pp2_reg\[5\]
*114 pp3_reg\[3\]
*115 pp3_reg\[4\]
*116 pp1_reg\[2\]
*117 pp3_reg\[5\]
*118 pp0_reg\[1\]
*119 pp1_reg\[4\]
*120 pp2_reg\[3\]
*121 pp3_reg\[6\]
*122 pp1_reg\[3\]
*123 pp2_reg\[4\]
*124 g1194
*125 pp0_reg\[0\]
*126 g1195
*127 g1197
*128 pp1_reg\[1\]
*129 g1196
*130 g1199
*131 z_reg\[0\]
*132 g1201
*133 g1202
*134 g1203
*135 g1204
*136 g1207
*137 g1205
*138 g1206
*139 g1208
*140 g1210
*141 g1209


*PORTS

*3 I *C 0 23
*4 I *C 0 18
*5 I *C 0 14
*6 I *C 15 0
*7 I *C 0 23
*8 I *C 0 20
*9 I *C 0 14
*10 I *C 11 0
*11 I *C 17 0
*12 I *C 41 19
*13 O *C 21 35
*14 O *C 41 26
*15 O *C 41 23
*16 O *C 21 0
*17 O *C 32 0
*18 O *C 30 0
*19 O *C 0 6
*20 O *C 22 0


*D_NET *1 0.00999897

*CONN
*I *123:CK I *C 15 20 *L 0.00154 *D QDFZCRBX1
*I *114:CK I *C 15 18 *L 0.00154 *D QDFZCRBX1
*I *112:CK I *C 15 15 *L 0.00154 *D QDFZCRBX1
*I *117:CK I *C 15 26 *L 0.00154 *D QDFZCRBX1
*I *111:CK I *C 15 12 *L 0.00154 *D QDFZCRBX1
*I *128:CK I *C 17 9 *L 0.00154 *D QDFZCRBX1
*I *101:CK I *C 10 6 *L 0.00163 *D QDFFX1
*I *116:CK I *C 24 9 *L 0.00154 *D QDFZCRBX1
*I *125:CK I *C 16 6 *L 0.00154 *D QDFZCRBX1
*I *86:CK I *C 25 18 *L 0.00155 *D QDFCRBX1
*I *131:CK I *C 26 7 *L 0.00155 *D QDFCRBX1
*I *118:CK I *C 8 9 *L 0.00154 *D QDFZCRBX1
*I *78:O O *C 25 20 *L 0 *D INVCKX20
*I *89:CK I *C 28 7 *L 0.00155 *D QDFCRBX1
*I *110:CK I *C 8 12 *L 0.00154 *D QDFZCRBX1
*I *91:CK I *C 34 10 *L 0.00163 *D QDFFX1
*I *80:CK I *C 25 26 *L 0.00155 *D QDFCRBX1
*I *122:CK I *C 8 15 *L 0.00154 *D QDFZCRBX1
*I *120:CK I *C 8 18 *L 0.00154 *D QDFZCRBX1
*I *115:CK I *C 8 20 *L 0.00154 *D QDFZCRBX1
*I *84:CK I *C 31 23 *L 0.00155 *D QDFCRBX1
*I *119:CK I *C 8 23 *L 0.00154 *D QDFZCRBX1
*I *113:CK I *C 8 26 *L 0.00154 *D QDFZCRBX1
*I *121:CK I *C 8 29 *L 0.00154 *D QDFZCRBX1
*I *81:CK I *C 30 26 *L 0.00155 *D QDFCRBX1

*CAP
1 *1:1 0.000271619
2 *1:2 0.000138449
3 *1:3 0.000271619
4 *1:5 0.000276897
5 *1:8 0.000276897
6 *1:11 0.000138449
7 *1:15 0.000135809
8 *1:16 0.0002852
9 *1:17 5.72251e-05
10 *1:18 0.00014939
11 *1:19 7.15314e-05
12 *1:20 0.000271819
13 *1:21 0.000400576
14 *1:22 0.000135809
15 *1:23 0.000343351
16 *1:24 0.000386269
17 *1:26 0.000135809
18 *1:27 7.15314e-05
19 *1:29 0.000543237
20 *1:33 0.00014939
21 *1:35 0.000421009
22 *1:36 0.000122228
23 *1:39 0.00014939
24 *1:40 1.43063e-05
25 *1:41 7.15314e-05
26 *1:43 2.86126e-05
27 *1:44 1.43063e-05
28 *1:45 0.000199925
29 *1:46 2.86126e-05
30 *1:47 0.000110759
31 *1:48 0.000400012
32 *1:50 0.000138449
33 *1:51 0.000110759
34 *1:53 0.000271619
35 *1:56 0.000138449
36 *1:60 0.000135809
37 *1:62 1.43063e-05
38 *1:64 0.000271619
39 *1:65 0.000135809
40 *1:66 1.43063e-05
41 *1:68 0.000271619
42 *1:70 0.000135809
43 *1:74 0.000271619
44 *1:75 0.000122228
45 *1:78 1.43063e-05
46 *1:79 0.000271619
47 *1:80 0.000122228
48 *1:82 1.43063e-05
49 *1:83 1.43063e-05
50 *1:84 0.000271619
51 *1:85 2.71619e-05
52 *1:87 1.43063e-05
53 *1:88 1.43063e-05
54 *1:89 0.000271619
55 *1:90 4.07428e-05
56 *1:93 1.43063e-05
57 *1:94 1.43063e-05
58 *1:95 0.000271619
59 *1:96 1.35809e-05
60 *1:97 0.000122228
61 *1:100 1.43063e-05
62 *1:101 1.43063e-05
63 *1:102 0.000135809
64 *1:104 0.000122228
65 *1:107 1.43063e-05
66 *1:108 2.71619e-05
67 *1:110 1.35809e-05
68 *1:113 2.71619e-05
69 *1:114 1.35809e-05

*RES
1 *1:117 *81:CK 4
2 *1:116 *121:CK 4
3 *1:114 *1:117 4
4 *1:113 *1:116 4
5 *1:112 *113:CK 4
6 *1:110 *1:114 0.21
7 *1:108 *1:113 0.42
8 *1:107 *1:112 4
9 *1:106 *119:CK 4
10 *1:104 *1:110 4
11 *1:103 *84:CK 4
12 *1:102 *1:108 4
13 *1:101 *1:107 0.21
14 *1:100 *1:106 4
15 *1:99 *115:CK 4
16 *1:97 *1:104 1.89
17 *1:96 *1:103 4
18 *1:95 *1:102 2.1
19 *1:95 *1:101 4
20 *1:94 *1:100 0.21
21 *1:93 *1:99 4
22 *1:92 *120:CK 4
23 *1:90 *1:97 4
24 *1:90 *1:96 0.21
25 *1:89 *1:95 2.1
26 *1:89 *1:94 4
27 *1:88 *1:93 0.21
28 *1:87 *1:92 4
29 *1:86 *122:CK 4
30 *1:85 *1:90 0.42
31 *1:84 *1:89 2.1
32 *1:84 *1:88 4
33 *1:83 *1:87 0.21
34 *1:82 *1:86 4
35 *1:80 *1:85 4
36 *1:79 *1:84 2.1
37 *1:79 *1:83 4
38 *1:78 *1:82 0.21
39 *1:76 *80:CK 4
40 *1:75 *1:80 1.89
41 *1:74 *1:79 2.1
42 *1:74 *1:78 4
43 *1:73 *91:CK 4
44 *1:72 *1:76 4
45 *1:71 *1:75 4
46 *1:70 *1:74 2.1
47 *1:69 *1:73 4
48 *1:68 *1:72 4
49 *1:67 *1:71 4
50 *1:66 *1:70 4
51 *1:65 *1:69 4
52 *1:64 *1:68 4.2
53 *78:O *1:67 4
54 *1:62 *1:66 0.21
55 *1:60 *1:65 2.1
56 *1:59 *1:64 4
57 *1:56 *110:CK 4
58 *1:56 *1:62 4
59 *1:54 *89:CK 4
60 *1:53 *1:60 4
61 *1:51 *1:59 4
62 *1:51 *78:O 4
63 *1:50 *118:CK 4
64 *1:50 *1:56 2.1
65 *1:49 *131:CK 4
66 *1:48 *1:54 4
67 *1:48 *1:53 4.2
68 *1:47 *86:CK 4
69 *1:47 *1:51 1.68
70 *1:46 *1:50 4
71 *1:45 *1:49 4
72 *1:45 *1:48 1.89
73 *1:44 *1:47 4
74 *1:43 *1:46 0.42
75 *1:41 *1:45 1.05
76 *1:40 *1:44 0.21
77 *1:39 *1:43 4
78 *1:38 *125:CK 4
79 *1:36 *1:41 4
80 *1:35 *1:40 4
81 *1:33 *1:39 2.31
82 *1:32 *1:38 4
83 *1:30 *116:CK 4
84 *1:29 *1:36 1.89
85 *1:29 *1:35 6.51
86 *1:28 *101:CK 4
87 *1:27 *1:33 4
88 *1:26 *1:32 4
89 *1:25 *128:CK 4
90 *1:24 *1:30 4
91 *1:24 *1:29 4
92 *1:23 *1:28 4
93 *1:23 *1:27 1.05
94 *1:22 *1:26 2.1
95 *1:21 *1:25 4
96 *1:21 *1:24 5.67
97 *1:20 *1:23 3.99
98 *1:19 *1:22 4
99 *1:19 *1:21 0.21
100 *1:18 *1:20 4
101 *1:17 *1:19 0.84
102 *1:16 *1:18 2.31
103 *1:16 *1:17 4
104 *1:15 *1:16 2.1
105 *1:13 *1:15 4
106 *1:11 *111:CK 4
107 *1:11 *1:13 4
108 *1:9 *117:CK 4
109 *1:8 *1:11 2.1
110 *1:8 *112:CK 4
111 *1:6 *1:9 4
112 *1:5 *1:8 2.1
113 *1:5 *114:CK 4
114 *1:3 *1:6 4
115 *1:2 *1:5 2.1
116 *1:2 *123:CK 4
117 *1:1 *1:3 4.2
118 *1:0 *1:2 4
119 *1:0 *1:1 4
*END

*D_NET *2 0.000190133

*CONN
*I *79:O O *C 30 18 *L 0 *D INVCKX20
*I *78:I I *C 31 20 *L 0.0366 *D INVCKX20

*CAP
1 *2:1 9.50665e-05
2 *2:2 9.50665e-05

*RES
1 *2:2 *78:I 4
2 *2:1 *2:2 1.47
3 *79:O *2:1 4
*END

*D_NET *3 0.00230205

*CONN
*P *3 I *C 0 23 *L 0
*I *119:D I *C 7 23 *L 0.00199 *D QDFZCRBX1
*I *113:D I *C 7 26 *L 0.00199 *D QDFZCRBX1
*I *110:D I *C 7 12 *L 0.00199 *D QDFZCRBX1
*I *121:D I *C 7 29 *L 0.00199 *D QDFZCRBX1

*CAP
1 *3:0 0.000407428
2 *3:1 0.000329044
3 *3:2 0.000407428
4 *3:3 2.76897e-05
5 *3 0.000329044
6 *3:6 0.000152293
7 *3:7 9.6914e-05
8 *3:8 0.000207673
9 *3:10 9.6914e-05
10 *3:11 9.6914e-05
11 *3:14 8.22774e-05
12 *3:15 6.84325e-05

*RES
1 *3:15 *121:D 4
2 *3:14 *3:15 1.05
3 *3:11 *3:14 0.21
4 *3:10 *110:D 4
5 *3:8 *113:D 4
6 *3:8 *3:11 1.26
7 *3:7 *3:10 1.47
8 *3:6 *119:D 4
9 *3:6 *3:8 1.89
10 *3:5 *3:7 4
11 *3:3 *3:6 0.42
12 *3:2 *3:5 4
13 *3:1 *3 4.83
14 *3:1 *3:3 4
15 *3:0 *3:2 6.3
16 *3:0 *3:1 4
*END

*D_NET *4 0.0030837

*CONN
*P *4 I *C 0 18 *L 0
*I *123:D I *C 14 20 *L 0.00199 *D QDFZCRBX1
*I *117:D I *C 14 26 *L 0.00199 *D QDFZCRBX1
*I *111:D I *C 14 12 *L 0.00199 *D QDFZCRBX1
*I *122:D I *C 7 15 *L 0.00199 *D QDFZCRBX1

*CAP
1 *4:0 0.000190133
2 *4:1 0.000386269
3 *4:2 0.000190133
4 *4:3 0.000110759
5 *4:4 0.000701008
6 *4:6 0.000373811
7 *4:7 5.53794e-05
8 *4 0.000314738
9 *4:9 9.6914e-05
10 *4:10 0.000263052
11 *4:12 6.92243e-05
12 *4:13 9.6914e-05
13 *4:15 0.000124604
14 *4:17 0.000110759

*RES
1 *4:17 *122:D 4
2 *4:15 *4:17 1.68
3 *4:13 *111:D 4
4 *4:12 *4:15 0.21
5 *4:10 *117:D 4
6 *4:9 *4:13 1.47
7 *4:7 *4:12 0.84
8 *4:6 *123:D 4
9 *4:6 *4:10 3.99
10 *4:5 *4:9 4
11 *4:4 *4 4.62
12 *4:4 *4:7 4
13 *4:3 *4:6 1.68
14 *4:2 *4:5 4
15 *4:1 *4:4 5.67
16 *4:1 *4:3 4
17 *4:0 *4:2 2.94
18 *4:0 *4:1 4
*END

*D_NET *5 0.0039029

*CONN
*I *118:D I *C 7 9 *L 0.00199 *D QDFZCRBX1
*I *116:D I *C 23 9 *L 0.00199 *D QDFZCRBX1
*I *120:D I *C 7 18 *L 0.00199 *D QDFZCRBX1
*I *115:D I *C 7 20 *L 0.00199 *D QDFZCRBX1
*P *5 I *C 0 14 *L 0

*CAP
1 *5:1 6.92243e-05
2 *5:2 2.76897e-05
3 *5:3 4.15346e-05
4 *5:4 1.43063e-05
5 *5:5 0.000829764
6 *5:6 1.43063e-05
7 *5:7 0.000829764
8 *5:8 0.000380266
9 *5:9 2.76897e-05
10 *5:10 0.000380266
11 *5:11 2.76897e-05
12 *5:12 0.000329044
13 *5:14 1.43063e-05
14 *5:15 0.000314738
15 *5:16 0.000124604
16 *5:17 0.000176552
17 *5:18 0.000124604
18 *5:20 0.000176552

*RES
1 *5:20 *5 4
2 *5:18 *115:D 4
3 *5:17 *5:20 2.73
4 *5:16 *120:D 4
5 *5:16 *5:18 1.89
6 *5:15 *5:17 4
7 *5:14 *5:16 4
8 *5:12 *5:15 4.62
9 *5:12 *5:14 0.21
10 *5:11 *116:D 4
11 *5:10 *5:12 4
12 *5:9 *5:11 0.42
13 *5:8 *5:10 5.88
14 *5:7 *5:9 4
15 *5:6 *5:8 4
16 *5:5 *5:7 12.18
17 *5:4 *5:6 0.21
18 *5:3 *5:5 4
19 *5:2 *5:4 4
20 *5:1 *5:3 0.63
21 *5:1 *5:2 0.42
22 *118:D *5:1 4
*END

*D_NET *6 0.00193306

*CONN
*I *125:D I *C 15 6 *L 0.00199 *D QDFZCRBX1
*I *128:D I *C 16 9 *L 0.00199 *D QDFZCRBX1
*P *6 I *C 15 0 *L 0
*I *112:D I *C 14 15 *L 0.00199 *D QDFZCRBX1
*I *114:D I *C 14 18 *L 0.00199 *D QDFZCRBX1

*CAP
1 *6:1 0.000359966
2 *6:2 8.30692e-05
3 *6:3 0.000290742
4 *6:4 8.30692e-05
5 *6:5 2.59405e-05
6 *6:6 0.000179983
7 *6:7 2.59405e-05
8 *6:8 0.000110759
9 *6:10 1.38449e-05
10 *6:11 4.29188e-05
11 *6 1.38449e-05
12 *6:13 4.29188e-05
13 *6:14 0.000162971
14 *6:15 0.000162971
15 *6:16 2.86126e-05
16 *6:17 2.86126e-05
17 *6:18 0.000138449
18 *6:19 0.000138449

*RES
1 *6:19 *114:D 4
2 *6:18 *112:D 4
3 *6:18 *6:19 2.1
4 *6:17 *6:18 4
5 *6:16 *6:17 0.42
6 *6:15 *6:16 4
7 *6:14 *6:15 2.52
8 *6:13 *6:14 4
9 *6:11 *6:13 0.63
10 *6:10 *6 0.21
11 *6:8 *6:11 4
12 *6:7 *6:10 4
13 *6:6 *128:D 4
14 *6:6 *6:8 1.68
15 *6:5 *6:7 0.536667
16 *6:4 *6:6 1.05
17 *6:3 *6:5 4
18 *6:2 *6:4 0.21
19 *6:1 *6:3 4.41
20 *6:1 *6:2 1.05
21 *125:D *6:1 4
*END

*D_NET *7 0.00314369

*CONN
*I *117:RB I *C 15 26 *L 0.0022 *D QDFZCRBX1
*I *121:RB I *C 8 29 *L 0.0022 *D QDFZCRBX1
*I *114:RB I *C 15 18 *L 0.0022 *D QDFZCRBX1
*I *115:RB I *C 7 20 *L 0.0022 *D QDFZCRBX1
*P *7 I *C 0 23 *L 0

*CAP
1 *7:0 6.92243e-05
2 *7:1 8.30692e-05
3 *7:3 1.38449e-05
4 *7:4 0.000357657
5 *7:5 5.43237e-05
6 *7:7 0.000357657
7 *7:8 5.43237e-05
8 *7:9 0.00031764
9 *7:11 0.000165347
10 *7:12 0.000166138
11 *7:13 0.000249207
12 *7:15 0.000110759
13 *7:16 0.000249207
14 *7:17 9.6914e-05
15 *7:18 4.29188e-05
16 *7:21 4.29188e-05
17 *7:22 4.15346e-05
18 *7:23 4.15346e-05
19 *7:24 0.000314738
20 *7 0.000314738

*RES
1 *7:24 *7 4.62
2 *7:23 *7:24 4
3 *7:22 *7:23 0.63
4 *7:21 *7:22 4
5 *7:18 *7:21 0.63
6 *7:17 *115:RB 4
7 *7:16 *114:RB 4
8 *7:15 *7:18 4
9 *7:15 *7:17 1.47
10 *7:13 *7:16 3.78
11 *7:12 *7:15 0.21
12 *7:11 *121:RB 4
13 *7:10 *7:13 4
14 *7:9 *7:12 2.31
15 *7:9 *7:11 2.52
16 *7:8 *7:10 4
17 *7:7 *7:9 4
18 *7:5 *7:8 0.84
19 *7:4 *7:7 5.25
20 *7:3 *117:RB 4
21 *7:2 *7:5 4
22 *7:1 *7:4 4
23 *7:1 *7:3 0.21
24 *7:0 *7:2 4
25 *7:0 *7:1 1.05
*END

*D_NET *8 0.00303138

*CONN
*I *112:RB I *C 15 15 *L 0.0022 *D QDFZCRBX1
*I *123:RB I *C 15 20 *L 0.0022 *D QDFZCRBX1
*I *120:RB I *C 7 18 *L 0.0022 *D QDFZCRBX1
*I *113:RB I *C 7 26 *L 0.0022 *D QDFZCRBX1
*P *8 I *C 0 20 *L 0

*CAP
1 *8:0 0.000263052
2 *8:1 1.29702e-05
3 *8:2 0.000276897
4 *112:RB 1.29702e-05
5 *8:4 1.38449e-05
6 *8:5 0.000371963
7 *8:6 1.29702e-05
8 *8:7 0.000371963
9 *123:RB 1.29702e-05
10 *8:9 0.000290742
11 *8:10 0.000207673
12 *8:11 9.6914e-05
13 *8:12 0.000110759
14 *8:13 1.29702e-05
15 *8:14 0.000343351
16 *8:15 9.6914e-05
17 *120:RB 1.29702e-05
18 *8:17 0.000343351
19 *8:19 8.30691e-05
20 *8:20 8.30691e-05

*RES
1 *8:20 *8 4
2 *8:19 *8:20 1.26
3 *8:17 *8:19 4
4 *8:15 *113:RB 4
5 *8:14 *8:17 5.04
6 *8:13 *120:RB 0.268333
7 *8:12 *8:15 1.47
8 *8:11 *8:14 4
9 *8:11 *8:13 4
10 *8:10 *8:12 0.21
11 *8:9 *8:11 1.47
12 *8:9 *8:10 2.94
13 *8:7 *8:9 4
14 *8:6 *123:RB 0.268333
15 *8:5 *8:7 5.46
16 *8:4 *8:6 4
17 *8:2 *8:5 4
18 *8:2 *8:4 0.21
19 *8:1 *112:RB 0.268333
20 *8:0 *8:2 3.99
21 *8:0 *8:1 4
*END

*D_NET *9 0.00395732

*CONN
*I *128:RB I *C 16 9 *L 0.0022 *D QDFZCRBX1
*I *116:RB I *C 24 9 *L 0.0022 *D QDFZCRBX1
*I *122:RB I *C 7 15 *L 0.0022 *D QDFZCRBX1
*P *9 I *C 0 14 *L 0
*I *119:RB I *C 7 23 *L 0.0022 *D QDFZCRBX1

*CAP
1 *9:0 4.15346e-05
2 *9:1 0.000235363
3 *9:3 0.000386269
4 *9:4 0.000193828
5 *9:5 0.000386269
6 *9:6 0.000457801
7 *9:7 4.15346e-05
8 *9:8 0.000457801
9 *9:9 4.15346e-05
10 *9:10 2.76897e-05
11 *9:12 4.15346e-05
12 *9:13 1.29702e-05
13 *9:14 1.38449e-05
14 *122:RB 1.29702e-05
15 *9:16 0.000286126
16 *9:17 0.000393847
17 *9:18 0.000286126
18 *9:19 0.000393847
19 *9:20 4.07428e-05
20 *9:21 1.43063e-05
21 *9:22 4.07428e-05
22 *9:23 1.43063e-05
23 *9:24 5.43237e-05
24 *9:25 1.38449e-05
25 *9 5.43237e-05
26 *9:27 1.38449e-05

*RES
1 *9:27 *119:RB 4
2 *9:25 *9:27 0.21
3 *9:24 *9 0.84
4 *9:23 *9:25 4
5 *9:22 *9:24 4
6 *9:21 *9:23 0.21
7 *9:20 *9:22 0.63
8 *9:19 *9:21 4
9 *9:18 *9:20 4
10 *9:17 *9:19 6.09
11 *9:16 *9:18 4.2
12 *9:16 *9:17 4
13 *9:14 *9:16 4
14 *9:13 *122:RB 0.268333
15 *9:12 *9:14 0.21
16 *9:12 *9:13 4
17 *9:10 *9:12 0.42
18 *9:9 *116:RB 4
19 *9:8 *9:10 4
20 *9:7 *9:9 0.63
21 *9:6 *9:8 6.72
22 *9:5 *9:7 4
23 *9:4 *9:6 4
24 *9:3 *9:5 5.67
25 *9:1 *9:4 2.94
26 *9:1 *9:3 4
27 *9:0 *128:RB 4
28 *9:0 *9:1 0.63
*END

*D_NET *10 0.00282435

*CONN
*I *125:RB I *C 16 7 *L 0.0022 *D QDFZCRBX1
*I *111:RB I *C 15 12 *L 0.0022 *D QDFZCRBX1
*P *10 I *C 11 0 *L 0
*I *110:RB I *C 7 12 *L 0.0022 *D QDFZCRBX1
*I *118:RB I *C 7 9 *L 0.0022 *D QDFZCRBX1

*CAP
1 *10:0 5.72251e-05
2 *10:1 0.000243207
3 *10:2 0.000249207
4 *10:3 1.38449e-05
5 *10:4 0.000371963
6 *10:5 0.000249207
7 *10:6 1.38449e-05
8 *10:7 0.000359966
9 *10:8 0.000185982
10 *10:11 0.000373811
11 *10:12 0.000138449
12 *10:13 0.000221518
13 *10:14 1.38449e-05
14 *10:15 0.000124604
15 *10 0.000207673

*RES
1 *10:15 *118:RB 4
2 *10:14 *110:RB 4
3 *10:13 *10 3.15
4 *10:12 *10:15 1.89
5 *10:12 *10:14 0.21
6 *10:11 *10:13 0.21
7 *10:8 *10:12 4
8 *10:7 *10:11 5.46
9 *10:6 *111:RB 4
10 *10:5 *125:RB 4
11 *10:4 *10:8 2.73
12 *10:4 *10:7 4
13 *10:3 *10:6 0.21
14 *10:2 *10:5 3.78
15 *10:1 *10:4 2.73
16 *10:1 *10:3 4
17 *10:0 *10:2 4
18 *10:0 *10:1 0.84
*END

*D_NET *11 0.00339821

*CONN
*P *11 I *C 17 0 *L 0
*I *79:I I *C 34 18 *L 0.0366 *D INVCKX20

*CAP
1 *11:1 0.000443495
2 *11:2 0.000443495
3 *11:3 0.000842018
4 *11:4 0.000842018
5 *11:5 0.000413593
6 *11:6 0.000413593

*RES
1 *11:7 *79:I 4
2 *11:6 *11:7 4
3 *11:5 *11:6 6.3
4 *11:4 *11:5 4
5 *11:3 *11:4 13.02
6 *11:2 *11:3 4
7 *11:1 *11:2 6.51
8 *11 *11:1 4
*END

*D_NET *12 0.00420857

*CONN
*I *141:I I *C 26 26 *L 0.002 *D INVCKX1
*I *81:RB I *C 29 26 *L 0.00232 *D QDFCRBX1
*I *80:RB I *C 26 26 *L 0.00232 *D QDFCRBX1
*I *86:RB I *C 26 18 *L 0.00232 *D QDFCRBX1
*I *84:RB I *C 30 24 *L 0.00232 *D QDFCRBX1
*P *12 I *C 41 19 *L 0
*I *131:RB I *C 27 6 *L 0.00232 *D QDFCRBX1
*I *89:RB I *C 27 6 *L 0.00232 *D QDFCRBX1

*CAP
1 *12:1 0.000182718
2 *12:3 0.000139799
3 *12:4 4.29188e-05
4 *12:5 0.000108647
5 *12:6 0.000387656
6 *12:8 0.000108647
7 *12:9 0.000899916
8 *12:11 2.71619e-05
9 *12:12 0.00051226
10 *12:14 0.000570399
11 *12:15 5.72251e-05
12 *12:16 0.000543237
13 *12:18 5.72251e-05
14 *12:19 0.000230876
15 *12:21 4.15346e-05
16 *12:22 0.000230876
17 *12:23 4.15346e-05
18 *131:RB 1.29702e-05
19 *89:RB 1.29702e-05

*RES
1 *131:RB *89:RB 0.268333
2 *12:23 *131:RB 4
3 *12:22 *12 4
4 *12:21 *12:23 0.63
5 *12:19 *12:22 3.57
6 *12:18 *12:21 4
7 *12:17 *84:RB 4
8 *12:16 *12:19 4
9 *12:15 *12:18 0.84
10 *12:14 *12:17 4
11 *12:14 *12:16 8.4
12 *12:12 *12:15 4
13 *12:11 *12:14 0.42
14 *12:9 *86:RB 4
15 *12:9 *12:12 7.77
16 *12:8 *12:11 4
17 *12:6 *80:RB 4
18 *12:6 *12:9 5.88
19 *12:5 *12:8 1.68
20 *12:5 *81:RB 4
21 *12:4 *12:6 4
22 *12:3 *12:5 4
23 *12:1 *12:4 0.63
24 *12:1 *12:3 2.1
25 *12:0 *141:I 4
26 *12:0 *12:1 4
*END

*D_NET *13 0.000845185

*CONN
*I *80:Q O *C 21 26 *L 0 *D QDFCRBX1
*P *13 O *C 21 35 *L 0

*CAP
1 *13:1 9.66501e-05
2 *13:2 9.66501e-05
3 *13:4 5.43237e-05
4 *13:5 5.43237e-05
5 *13:7 0.000271619
6 *13 0.000271619

*RES
1 *13:7 *13 4.2
2 *13:6 *13:7 4
3 *13:5 *13:6 4
4 *13:4 *13:5 0.84
5 *13:3 *13:4 4
6 *13:2 *13:3 4
7 *13:1 *13:2 1.47
8 *80:Q *13:1 4
*END

*D_NET *14 0.000651885

*CONN
*I *81:Q O *C 34 26 *L 0 *D QDFCRBX1
*P *14 O *C 41 26 *L 0

*CAP
1 *14:2 0.000325942
2 *14 0.000325942

*RES
1 *14:2 *14 5.04
2 *14:1 *14:2 4
3 *81:Q *14:1 4
*END

*D_NET *15 0.000597561

*CONN
*I *84:Q O *C 35 23 *L 0 *D QDFCRBX1
*P *15 O *C 41 23 *L 0

*CAP
1 *15:2 0.000298781
2 *15 0.000298781

*RES
1 *15:2 *15 4.62
2 *15:1 *15:2 4
3 *84:Q *15:1 4
*END

*D_NET *16 0.00173891

*CONN
*I *86:Q O *C 21 17 *L 0 *D QDFCRBX1
*P *16 O *C 21 0 *L 0

*CAP
1 *16:1 0.000235363
2 *16:2 0.000235363
3 *16:3 1.43063e-05
4 *16:4 1.43063e-05
5 *16:5 0.000190133
6 *16:6 0.000190133
7 *16:7 1.43063e-05
8 *16:8 1.43063e-05
9 *16:9 0.000415346
10 *16 0.000415346

*RES
1 *16:9 *16 6.3
2 *16:8 *16:9 4
3 *16:7 *16:8 0.21
4 *16:6 *16:7 4
5 *16:5 *16:6 2.94
6 *16:4 *16:5 4
7 *16:3 *16:4 0.21
8 *16:2 *16:3 4
9 *16:1 *16:2 3.57
10 *86:Q *16:1 4
*END

*D_NET *17 0.000570399

*CONN
*I *89:Q O *C 32 6 *L 0 *D QDFCRBX1
*P *17 O *C 32 0 *L 0

*CAP
1 *17:1 0.0002852
2 *17 0.0002852

*RES
1 *17:1 *17 4.41
2 *89:Q *17:1 4
*END

*D_NET *18 0.000923503

*CONN
*I *91:Q O *C 30 10 *L 0 *D QDFFX1
*P *18 O *C 30 0 *L 0

*CAP
1 *18:1 2.71619e-05
2 *18:2 4.07428e-05
3 *18:3 0.000271619
4 *18:4 0.000258038
5 *18:5 2.71619e-05
6 *18:6 2.71619e-05
7 *18:7 0.000135809
8 *18 0.000135809

*RES
1 *18:7 *18 2.1
2 *18:6 *18:7 4
3 *18:5 *18:6 0.42
4 *18:4 *18:5 4
5 *18:3 *18:4 3.99
6 *18:2 *18:3 0.21
7 *18:1 *18:2 0.42
8 *91:Q *18:1 4
*END

*D_NET *19 0.000543638

*CONN
*I *101:Q O *C 6 6 *L 0 *D QDFFX1
*P *19 O *C 0 6 *L 0

*CAP
1 *19:2 0.000271819
2 *19 0.000271819

*RES
1 *19:2 *19 3.99
2 *19:1 *19:2 4
3 *101:Q *19:1 4
*END

*D_NET *20 0.000581484

*CONN
*I *131:Q O *C 22 6 *L 0 *D QDFCRBX1
*P *20 O *C 22 0 *L 0

*CAP
1 *20:1 0.000290742
2 *20 0.000290742

*RES
1 *20:1 *20 4.41
2 *131:Q *20:1 4
*END

*D_NET *21 0.00286211

*CONN
*I *104:A2 I *C 17 24 *L 0.00282 *D MAOI1X1
*I *104:B1 I *C 16 24 *L 0.00181 *D MAOI1X1
*I *119:Q O *C 12 23 *L 0 *D QDFZCRBX1
*I *100:B1 I *C 29 29 *L 0.00452 *D MAOI222X1
*I *119:TD I *C 6 23 *L 0.000964 *D QDFZCRBX1

*CAP
1 *21:1 0.000152293
2 *21:2 0.000152293
3 *21:3 8.58377e-05
4 *21:4 0.000611906
5 *21:5 0.000271819
6 *21:6 0.000611906
7 *21:8 0.000472107
8 *21:9 9.50665e-05
9 *21:12 0.000286126
10 *21:13 9.50665e-05
11 *21:15 1.38449e-05
12 *21:17 1.38449e-05

*RES
1 *21:17 *119:TD 4
2 *21:15 *21:17 0.21
3 *21:13 *100:B1 4
4 *21:12 *21:15 4
5 *21:11 *119:Q 4
6 *21:9 *21:13 1.47
7 *21:8 *21:12 4.2
8 *21:8 *21:11 4
9 *21:7 *104:B1 4
10 *21:6 *21:9 4
11 *21:5 *21:8 2.73
12 *21:5 *21:7 4
13 *21:4 *21:6 9.03
14 *21:3 *21:5 1.26
15 *21:2 *21:4 4
16 *21:1 *21:3 4
17 *21:1 *21:2 2.31
18 *104:A2 *21:1 4
*END

*D_NET *22 0.00234023

*CONN
*I *94:B I *C 29 15 *L 0.00719 *D FA1X1
*I *122:Q O *C 12 15 *L 0 *D QDFZCRBX1
*I *122:TD I *C 6 15 *L 0.000964 *D QDFZCRBX1

*CAP
1 *22:0 0.000870144
2 *22:1 0.00115627
3 *22:4 0.000286126
4 *22:7 1.38449e-05
5 *22:8 1.38449e-05

*RES
1 *22:8 *122:TD 4
2 *22:7 *22:8 0.21
3 *22:4 *22:7 4
4 *22:3 *122:Q 4
5 *22:2 *94:B 4
6 *22:1 *22:4 4.2
7 *22:1 *22:3 4
8 *22:0 *22:2 4
9 *22:0 *22:1 12.81
*END

*D_NET *23 0.00206648

*CONN
*I *105:A2 I *C 35 12 *L 0.00282 *D MAOI1X1
*I *105:B1 I *C 33 12 *L 0.00181 *D MAOI1X1
*I *124:I1 I *C 34 7 *L 0.00132 *D AN2B1XLP
*I *116:Q O *C 28 10 *L 0 *D QDFZCRBX1
*I *116:TD I *C 23 9 *L 0.000964 *D QDFZCRBX1

*CAP
1 *23:0 2.71619e-05
2 *23:1 8.14856e-05
3 *23:3 0.000162971
4 *23:4 5.43237e-05
5 *23:6 0.000162971
6 *23:7 2.71619e-05
7 *23:8 1.35809e-05
8 *23:10 2.71619e-05
9 *23:11 1.35809e-05
10 *23:12 0.000244457
11 *23:13 9.50665e-05
12 *23:14 0.000244457
13 *23:15 9.50665e-05
14 *23:16 8.14856e-05
15 *23:18 9.50665e-05
16 *23:19 0.000285763
17 *23:20 1.35809e-05
18 *23:21 0.000285763
19 *23:23 2.76897e-05
20 *23:24 2.76897e-05

*RES
1 *23:24 *116:TD 4
2 *23:23 *23:24 0.42
3 *23:21 *23:23 4
4 *23:20 *116:Q 4
5 *23:19 *23:21 4.2
6 *23:18 *23:20 0.21
7 *23:18 *23:19 4
8 *23:16 *23:18 1.26
9 *23:15 *124:I1 4
10 *23:14 *23:16 4
11 *23:13 *23:15 1.47
12 *23:12 *23:14 3.78
13 *23:11 *23:13 4
14 *23:10 *23:12 4
15 *23:8 *23:11 0.21
16 *23:7 *23:10 0.42
17 *23:7 *105:B1 4
18 *23:6 *23:8 4
19 *23:4 *23:7 4
20 *23:3 *23:6 2.52
21 *23:2 *105:A2 4
22 *23:1 *23:4 0.84
23 *23:1 *23:3 4
24 *23:0 *23:2 4
25 *23:0 *23:1 0.42
*END

*D_NET *24 0.00133095

*CONN
*I *140:I I *C 14 7 *L 0.00213 *D INVXLP
*I *127:A I *C 11 6 *L 0.00199 *D MUXB2X1
*I *137:I2 I *C 14 9 *L 0.00277 *D ND2X1
*I *128:TD I *C 15 9 *L 0.000964 *D QDFZCRBX1
*I *128:Q O *C 21 10 *L 0 *D QDFZCRBX1

*CAP
1 *24:0 0.00011445
2 *24:1 6.92243e-05
3 *24:2 0.00011445
4 *24:3 6.92243e-05
5 *24:4 1.38449e-05
6 *24:5 2.76897e-05
7 *24:6 5.53794e-05
8 *24:8 2.76897e-05
9 *24:9 4.15346e-05
10 *24:11 5.72251e-05
11 *24:13 5.72251e-05
12 *24:14 1.38449e-05
13 *24:15 4.15346e-05
14 *24:16 2.76897e-05
15 *24:18 0.000286126
16 *24:19 0.000286126
17 *24:20 1.38449e-05
18 *24:21 1.38449e-05

*RES
1 *24:21 *128:Q 4
2 *24:20 *24:21 0.21
3 *24:19 *24:20 4
4 *24:18 *24:19 4.2
5 *24:16 *24:18 4
6 *24:15 *128:TD 4
7 *24:15 *24:16 0.42
8 *24:14 *24:15 0.21
9 *24:13 *24:14 4
10 *24:11 *24:13 0.84
11 *24:9 *137:I2 4
12 *24:9 *24:11 4
13 *24:8 *127:A 4
14 *24:6 *24:9 0.63
15 *24:5 *24:8 0.42
16 *24:4 *140:I 4
17 *24:3 *24:6 0.21
18 *24:2 *24:5 4
19 *24:1 *24:4 0.21
20 *24:1 *24:3 0.84
21 *24:0 *24:2 1.68
22 *24:0 *24:1 4
*END

*D_NET *25 0.00352915

*CONN
*I *110:Q O *C 12 12 *L 0 *D QDFZCRBX1
*I *110:TD I *C 6 12 *L 0.000964 *D QDFZCRBX1
*I *106:B2 I *C 21 12 *L 0.00153 *D MOAI1X1
*I *106:A2 I *C 21 12 *L 0.00239 *D MOAI1X1
*I *130:C1 I *C 21 29 *L 0.00534 *D MAOI222X1

*CAP
1 *25:0 4.15346e-05
2 *25:1 0.00011445
3 *25:2 4.15346e-05
4 *25:3 0.000128756
5 *25:5 0.000286126
6 *25:6 0.000343351
7 *25:7 0.000286126
8 *25:8 0.000329044
9 *25:9 1.38449e-05
10 *25:10 4.15346e-05
11 *25:11 1.38449e-05
12 *25:12 4.15346e-05
13 *106:B2 2.59405e-05
14 *106:A2 2.59405e-05
15 *25:17 2.86126e-05
16 *25:18 2.86126e-05
17 *25:19 0.000828437
18 *25:20 0.000828437
19 *25:21 2.71619e-05
20 *25:22 2.71619e-05
21 *25:23 1.35809e-05
22 *25:24 1.35809e-05

*RES
1 *25:24 *130:C1 4
2 *25:23 *25:24 0.21
3 *25:22 *25:23 4
4 *25:21 *25:22 0.42
5 *25:20 *25:21 4
6 *25:19 *25:20 12.81
7 *25:18 *25:19 4
8 *25:17 *25:18 0.42
9 *25:16 *25:17 4
10 *106:A2 *25:16 4
11 *106:B2 *106:A2 0.536667
12 *25:12 *106:B2 4
13 *25:11 *110:TD 4
14 *25:10 *25:12 0.63
15 *25:9 *25:11 0.21
16 *25:8 *25:10 4
17 *25:7 *25:9 4
18 *25:6 *25:8 4.83
19 *25:5 *25:7 4.2
20 *25:3 *25:6 0.21
21 *25:2 *25:5 4
22 *25:2 *110:Q 4
23 *25:1 *25:3 1.68
24 *25:0 *25:2 0.63
25 *25:0 *25:1 4
*END

*D_NET *26 0.00233073

*CONN
*I *135:I1 I *C 33 15 *L 0.00279 *D XNR2X1
*I *139:I1 I *C 33 12 *L 0.00161 *D AN2X1
*I *111:Q O *C 19 12 *L 0 *D QDFZCRBX1
*I *111:TD I *C 14 12 *L 0.000964 *D QDFZCRBX1

*CAP
1 *26:0 0.000122228
2 *26:1 0.00014939
3 *26:4 2.71619e-05
4 *26:5 0.000688314
5 *26:6 0.000688314
6 *26:7 2.76897e-05
7 *26:8 2.76897e-05
8 *26:10 0.000286126
9 *26:11 0.000286126
10 *26:12 1.38449e-05
11 *26:13 1.38449e-05

*RES
1 *26:13 *111:TD 4
2 *26:12 *26:13 0.21
3 *26:11 *26:12 4
4 *26:10 *26:11 4.2
5 *26:8 *26:10 4
6 *26:8 *111:Q 4
7 *26:7 *26:8 0.42
8 *26:6 *26:7 4
9 *26:5 *26:6 10.29
10 *26:4 *26:5 4
11 *26:1 *26:4 0.42
12 *26:1 *139:I1 4
13 *26:0 *135:I1 4
14 *26:0 *26:1 1.89
*END

*D_NET *27 0.000992211

*CONN
*I *127:S I *C 12 6 *L 0.00285 *D MUXB2X1
*I *118:Q O *C 12 10 *L 0 *D QDFZCRBX1
*I *137:I1 I *C 13 9 *L 0.00234 *D ND2X1
*I *118:TD I *C 6 9 *L 0.000964 *D QDFZCRBX1

*CAP
1 *27:0 1.43063e-05
2 *27:1 7.15314e-05
3 *27:2 0.000110759
4 *27:3 2.86126e-05
5 *27:4 0.000314738
6 *27:5 0.000110759
7 *27:6 1.38449e-05
8 *27:8 0.000286126
9 *27:10 1.38449e-05
10 *27:12 1.38449e-05
11 *27:14 1.38449e-05

*RES
1 *27:14 *118:TD 4
2 *27:12 *27:14 0.21
3 *27:10 *137:I1 4
4 *27:8 *27:12 4
5 *27:7 *118:Q 4
6 *27:6 *27:10 0.21
7 *27:5 *127:S 4
8 *27:4 *27:8 4.2
9 *27:4 *27:7 4
10 *27:3 *27:6 4
11 *27:2 *27:5 1.68
12 *27:1 *27:4 0.42
13 *27:1 *27:3 0.42
14 *27:0 *27:2 4
15 *27:0 *27:1 0.21
*END

*D_NET *28 0.00128387

*CONN
*I *125:Q O *C 20 6 *L 0 *D QDFZCRBX1
*I *125:TD I *C 15 6 *L 0.000964 *D QDFZCRBX1
*I *131:D I *C 26 6 *L 0.00205 *D QDFCRBX1

*CAP
1 *28:0 0.000286126
2 *28:1 2.76897e-05
3 *28:2 0.000286126
4 *28:4 2.76897e-05
5 *28:5 1.38449e-05
6 *28:6 0.000300432
7 *28:7 1.38449e-05
8 *28:8 0.000300432
9 *28:10 1.38449e-05
10 *28:11 1.38449e-05

*RES
1 *28:11 *131:D 4
2 *28:10 *28:11 0.21
3 *28:8 *28:10 4
4 *28:7 *125:TD 4
5 *28:6 *28:8 4.41
6 *28:5 *28:7 0.21
7 *28:4 *28:6 4
8 *28:2 *28:5 4
9 *28:1 *28:4 0.42
10 *28:1 *125:Q 4
11 *28:0 *28:2 4.2
12 *28:0 *28:1 4
*END

*D_NET *29 0.00119268

*CONN
*I *108:B2 I *C 15 29 *L 0.00153 *D MOAI1X1
*I *108:A2 I *C 15 29 *L 0.00239 *D MOAI1X1
*I *129:B1 I *C 17 29 *L 0.00201 *D OR2B1XLP
*I *121:Q O *C 12 29 *L 0 *D QDFZCRBX1
*I *121:TD I *C 7 29 *L 0.000964 *D QDFZCRBX1

*CAP
1 *29:0 1.35809e-05
2 *29:1 1.35809e-05
3 *29:2 0.000244457
4 *108:B2 2.59405e-05
5 *29:4 0.000122228
6 *29:5 0.000122228
7 *29:7 2.71619e-05
8 *108:A2 2.59405e-05
9 *29:10 2.71619e-05
10 *29:12 0.000271619
11 *29:13 0.000271619
12 *29:14 1.35809e-05
13 *29:15 1.35809e-05

*RES
1 *29:15 *121:TD 4
2 *29:14 *29:15 0.21
3 *29:13 *29:14 4
4 *29:12 *29:13 4.2
5 *29:10 *29:12 4
6 *29:10 *121:Q 4
7 *29:7 *29:10 0.42
8 *29:6 *129:B1 4
9 *108:B2 *108:A2 0.536667
10 *29:5 *29:7 4
11 *29:4 *29:6 4
12 *29:2 *29:5 1.89
13 *29:2 *29:4 1.89
14 *29:1 *108:B2 4
15 *29:0 *29:2 4
16 *29:0 *29:1 0.21
*END

*D_NET *30 0.00123614

*CONN
*I *117:TD I *C 14 26 *L 0.000964 *D QDFZCRBX1
*I *138:I1 I *C 14 29 *L 0.00234 *D ND2X1
*I *134:I1 I *C 13 23 *L 0.00285 *D XOR2X1
*I *117:Q O *C 19 26 *L 0 *D QDFZCRBX1

*CAP
1 *30:0 4.15346e-05
2 *30:1 8.30691e-05
3 *30:2 2.86126e-05
4 *30:3 5.53794e-05
5 *30:5 2.86126e-05
6 *30:6 0.000137657
7 *30:7 9.6914e-05
8 *30:8 9.61222e-05
9 *30:9 2.76897e-05
10 *30:10 9.6914e-05
11 *30:12 0.000271819
12 *30:14 0.000271819

*RES
1 *30:15 *117:Q 4
2 *30:14 *30:15 4
3 *30:12 *30:14 3.99
4 *30:10 *134:I1 4
5 *30:9 *30:12 4
6 *30:8 *138:I1 4
7 *30:7 *30:10 1.47
8 *30:6 *30:9 0.42
9 *30:6 *30:8 1.47
10 *30:5 *30:7 4
11 *30:3 *30:6 0.21
12 *30:2 *30:5 0.42
13 *30:1 *117:TD 4
14 *30:1 *30:3 0.63
15 *30:0 *30:2 4
16 *30:0 *30:1 0.63
*END

*D_NET *31 0.00165676

*CONN
*I *133:I1 I *C 21 20 *L 0.00285 *D XOR2X1
*I *136:I1 I *C 20 20 *L 0.00234 *D ND2X1
*I *115:Q O *C 12 21 *L 0 *D QDFZCRBX1
*I *115:TD I *C 6 20 *L 0.000964 *D QDFZCRBX1

*CAP
1 *31:0 7.15314e-05
2 *31:1 0.000257513
3 *31:4 0.000200288
4 *31:7 0.000243207
5 *31:8 0.0002289
6 *31:9 2.76897e-05
7 *31:10 2.76897e-05
8 *31:12 0.000286126
9 *31:13 0.000286126
10 *31:14 1.38449e-05
11 *31:15 1.38449e-05

*RES
1 *31:15 *115:TD 4
2 *31:14 *31:15 0.21
3 *31:13 *31:14 4
4 *31:12 *31:13 4.2
5 *31:10 *31:12 4
6 *31:10 *115:Q 4
7 *31:9 *31:10 0.42
8 *31:8 *31:9 4
9 *31:7 *31:8 3.36
10 *31:4 *31:7 0.21
11 *31:3 *136:I1 4
12 *31:2 *133:I1 4
13 *31:1 *31:4 2.73
14 *31:1 *31:3 4
15 *31:0 *31:2 4
16 *31:0 *31:1 1.05
*END

*D_NET *32 0.00221878

*CONN
*I *114:Q O *C 19 17 *L 0 *D QDFZCRBX1
*I *114:TD I *C 14 18 *L 0.000964 *D QDFZCRBX1
*I *132:I1 I *C 20 15 *L 0.00279 *D XNR2X1
*I *130:B1 I *C 21 29 *L 0.00452 *D MAOI222X1

*CAP
1 *32:0 4.29188e-05
2 *32:1 0.000380266
3 *32:2 7.15314e-05
4 *32:3 0.000380266
5 *32:4 9.6914e-05
6 *32:5 0.000314738
7 *32:6 1.43063e-05
8 *32:7 0.000110759
9 *32:9 0.000286126
10 *32:10 1.43063e-05
11 *32:11 5.53794e-05
12 *32:14 0.000178927
13 *32:15 4.15346e-05
14 *32:17 0.000178927
15 *32:18 1.29702e-05
16 *32:19 1.29702e-05
17 *132:I1 1.29702e-05
18 *130:B1 1.29702e-05

*RES
1 *32:19 *130:B1 0.268333
2 *32:18 *132:I1 0.268333
3 *32:17 *32:19 4
4 *32:15 *32:18 4
5 *32:14 *32:17 2.73
6 *32:13 *114:TD 4
7 *32:11 *32:15 0.63
8 *32:10 *32:14 4
9 *32:9 *32:13 4
10 *32:8 *114:Q 4
11 *32:7 *32:11 0.21
12 *32:6 *32:10 0.21
13 *32:5 *32:9 4.2
14 *32:5 *32:8 4
15 *32:4 *32:7 1.47
16 *32:3 *32:6 4
17 *32:2 *32:5 0.42
18 *32:2 *32:4 4
19 *32:1 *32:3 5.88
20 *32:0 *32:2 0.63
21 *32:0 *32:1 4
*END

*D_NET *33 0.00132475

*CONN
*I *134:I2 I *C 14 24 *L 0.00373 *D XOR2X1
*I *138:I2 I *C 13 29 *L 0.00277 *D ND2X1
*I *113:Q O *C 12 26 *L 0 *D QDFZCRBX1
*I *113:TD I *C 6 26 *L 0.000964 *D QDFZCRBX1

*CAP
1 *33:0 4.29188e-05
2 *33:1 0.000100144
3 *33:2 0.000110759
4 *33:3 0.000151502
5 *33:4 0.000343351
6 *33:5 0.000110759
7 *33:6 0.000151502
8 *33:8 0.000286126
9 *33:12 1.38449e-05
10 *33:13 1.38449e-05

*RES
1 *33:13 *113:TD 4
2 *33:12 *33:13 0.21
3 *33:8 *33:12 4
4 *33:7 *113:Q 4
5 *33:6 *138:I2 4
6 *33:5 *134:I2 4
7 *33:4 *33:8 4.2
8 *33:4 *33:7 4
9 *33:3 *33:6 2.31
10 *33:2 *33:5 1.68
11 *33:1 *33:4 0.84
12 *33:1 *33:3 4
13 *33:0 *33:2 4
14 *33:0 *33:1 0.63
*END

*D_NET *34 0.000914679

*CONN
*I *133:I2 I *C 22 20 *L 0.00373 *D XOR2X1
*I *136:I2 I *C 21 20 *L 0.00277 *D ND2X1
*I *123:Q O *C 19 21 *L 0 *D QDFZCRBX1
*I *123:TD I *C 14 20 *L 0.000964 *D QDFZCRBX1

*CAP
1 *34:0 7.15314e-05
2 *34:1 0.000157369
3 *34:4 0.000371963
4 *34:8 0.000286126
5 *34:10 1.38449e-05
6 *34:11 1.38449e-05

*RES
1 *34:11 *123:TD 4
2 *34:10 *34:11 0.21
3 *34:8 *34:10 4
4 *34:7 *123:Q 4
5 *34:4 *34:8 4.2
6 *34:4 *34:7 4