*SPEF "IEEE 1481-1998"
*DESIGN "clock_divider"
*DATE "Thu Jun 11 13:22:26 2015"
*VENDOR "Silicon Perspective, A Cadence Company"
*PROGRAM "Encounter"
*VERSION "09.12-s159_1"
*DESIGN_FLOW "PIN_CAP NONE" "NAME_SCOPE LOCAL"
*DIVIDER /
*DELIMITER :
*BUS_DELIMITER []
*T_UNIT 1 NS
*C_UNIT 1 PF
*R_UNIT 1 OHM
*L_UNIT 1 HENRY

*NAME_MAP

*1 clock__L2_N0
*2 clock__L1_N0
*3 clock
*4 reset
*5 enable_all
*6 enable_clk1
*7 enable_clk2
*8 enable_clk3
*9 clk1
*10 clk2
*11 clk3
*12 clk1_counter[3]
*13 clk1_counter[2]
*14 clk1_counter[1]
*15 clk1_counter[0]
*16 clk2_counter[2]
*17 clk2_counter[1]
*18 clk2_counter[0]
*19 clk3_counter[1]
*20 clk3_counter[0]
*21 clk1_internal
*22 clk2_internal
*23 clk3_internal
*24 n_0
*25 n_1
*26 n_2
*27 n_3
*28 n_4
*29 n_5
*30 n_6
*31 n_7
*32 n_8
*33 n_9
*34 n_10
*35 n_11
*36 n_12
*37 n_13
*38 n_14
*39 n_15
*40 n_16
*41 n_20
*42 n_21
*43 n_22
*44 n_27
*45 n_29
*46 n_30
*47 n_31
*48 n_32
*49 n_33
*50 clock__L2_I0
*51 clock__L1_I0
*52 clk1_counter_reg\[3\]
*53 clk1_internal_reg
*54 clk2_internal_reg
*55 g546
*56 clk1_counter_reg\[2\]
*57 clk3_internal_reg
*58 g550
*59 clk2_counter_reg\[2\]
*60 clk1_tri
*61 clk2_tri
*62 clk3_tri
*63 g552
*64 g545
*65 clk2_reg57
*66 g557
*67 clk2_counter_reg\[0\]
*68 clk3_counter_reg\[1\]
*69 clk1_counter_reg\[1\]
*70 clk1_counter_reg\[0\]
*71 clk3_counter_reg\[0\]
*72 clk2_counter_reg\[1\]
*73 g551
*74 clk1_reg56
*75 clk3_reg58
*76 g558
*77 g553
*78 g562
*79 g563
*80 g564
*81 g565
*82 g569
*83 g570
*84 g571
*85 g573
*86 clk3_reg
*87 clk2_reg
*88 clk1_reg
*89 g574
*90 g572
*91 g575


*PORTS

*3 I *C 0 17
*4 I *C 0 18
*5 I *C 23 35
*6 I *C 21 35
*7 I *C 24 35
*8 I *C 22 35
*9 O *C 21 35
*10 O *C 38 25
*11 O *C 19 35


*D_NET *1 0.00832079

*CONN
*I *87:CK I *C 26 20 *L 0.00164 *D DFFX1
*I *65:CK I *C 27 23 *L 0.00164 *D DFFX1
*I *59:CK I *C 25 12 *L 0.00155 *D DFCLRBX1
*I *50:O O *C 18 15 *L 0 *D INVCKX16
*I *54:CK I *C 21 17 *L 0.00163 *D QDFFX1
*I *70:CK I *C 23 10 *L 0.00163 *D QDFFX1
*I *72:CK I *C 22 6 *L 0.00155 *D DFCLRBX1
*I *69:CK I *C 18 12 *L 0.00155 *D DFCLRBX1
*I *88:CK I *C 14 18 *L 0.00164 *D DFFX1
*I *74:CK I *C 13 21 *L 0.00164 *D DFFX1
*I *71:CK I *C 12 21 *L 0.00163 *D QDFFX1
*I *75:CK I *C 16 23 *L 0.00164 *D DFFX1
*I *86:CK I *C 14 26 *L 0.00164 *D DFFX1
*I *57:CK I *C 11 23 *L 0.00163 *D QDFFX1
*I *68:CK I *C 8 26 *L 0.00155 *D DFCLRBX1
*I *53:CK I *C 6 17 *L 0.00163 *D QDFFX1
*I *52:CK I *C 8 12 *L 0.00155 *D DFCLRBX1
*I *56:CK I *C 8 6 *L 0.00155 *D DFCLRBX1
*I *67:CK I *C 13 6 *L 0.00163 *D QDFFX1

*CAP
1 *1:1 0.000529656
2 *1:3 0.000122228
3 *1:4 0.000407428
4 *1:6 4.08804e-05
5 *1:7 4.08804e-05
6 *1:8 4.08804e-05
7 *1:9 0.000245282
8 *1:12 0.000204402
9 *1:15 0.000271619
10 *1:16 0.000258038
11 *1:17 0.000122228
12 *1:18 1.36268e-05
13 *1:19 0.000108647
14 *1:20 2.72536e-05
15 *1:21 1.36268e-05
16 *1:23 9.53875e-05
17 *1:26 6.81339e-05
18 *1:27 0.00014939
19 *1:31 0.00014939
20 *1:35 0.000122228
21 *1:37 1.36268e-05
22 *1:38 0.000122228
23 *1:40 1.36268e-05
24 *1:42 0.000122228
25 *1:43 0.000122228
26 *1:44 9.53875e-05
27 *1:45 0.000122641
28 *1:47 2.72536e-05
29 *1:49 0.00014939
30 *1:50 0.000258038
31 *1:51 0.000108647
32 *1:52 8.17607e-05
33 *1:53 4.08804e-05
34 *1:54 0.000109014
35 *1:56 0.000122641
36 *1:58 2.72536e-05
37 *1:60 0.00014939
38 *1:61 8.17607e-05
39 *1:63 0.000108647
40 *1:64 0.00014939
41 *1:66 0.000108647
42 *1:69 0.000122641
43 *1:72 0.000122641
44 *1:75 0.000421009
45 *1:76 0.00014939
46 *1:77 0.000271619
47 *1:78 2.72536e-05
48 *1:79 0.000109014
49 *1:80 2.72536e-05
50 *1:81 0.000109014
51 *1:83 0.000258038
52 *1:86 0.000258038
53 *1:88 6.81339e-05
54 *1:89 8.17607e-05
55 *1:90 1.36268e-05
56 *1:91 0.000271619
57 *1:93 0.000271619
58 *1:95 2.72536e-05
59 *1:96 0.000272536
60 *1:97 0.000245282
61 *1:99 1.35809e-05
62 *1:101 1.35809e-05

*RES
1 *1:101 *67:CK 4
2 *1:99 *1:101 0.21
3 *1:98 *56:CK 4
4 *1:97 *1:99 4
5 *1:96 *1:98 4
6 *1:96 *1:97 3.78
7 *1:95 *1:96 0.42
8 *1:93 *1:95 4
9 *1:92 *52:CK 4
10 *1:91 *1:93 4.2
11 *1:90 *1:92 4
12 *1:89 *1:91 4
13 *1:89 *1:90 0.21
14 *1:88 *1:89 1.05
15 *1:86 *1:88 4
16 *1:84 *53:CK 4
17 *1:83 *1:86 3.99
18 *1:82 *68:CK 4
19 *1:81 *1:84 4
20 *1:81 *1:83 4
21 *1:80 *1:82 4
22 *1:79 *1:81 1.68
23 *1:78 *1:80 0.42
24 *1:77 *1:79 4
25 *1:76 *1:78 4
26 *1:75 *1:77 4.2
27 *1:75 *1:76 2.31
28 *1:72 *1:75 4
29 *1:71 *57:CK 4
30 *1:70 *86:CK 4
31 *1:69 *1:72 1.89
32 *1:69 *1:71 4
33 *1:67 *1:70 4
34 *1:66 *1:69 4
35 *1:65 *75:CK 4
36 *1:64 *1:67 4
37 *1:63 *1:66 1.68
38 *1:61 *1:65 4
39 *1:60 *1:64 2.31
40 *1:58 *1:63 4
41 *1:57 *71:CK 4
42 *1:56 *1:61 1.26
43 *1:56 *1:60 4
44 *1:55 *74:CK 4
45 *1:54 *1:58 0.42
46 *1:54 *1:57 4
47 *1:53 *1:56 0.63
48 *1:52 *1:55 4
49 *1:52 *1:54 1.26
50 *1:51 *1:53 4
51 *1:50 *1:52 4
52 *1:50 *1:51 1.68
53 *1:49 *1:50 2.31
54 *1:47 *1:49 4
55 *1:46 *88:CK 4
56 *1:45 *1:47 0.42
57 *1:45 *1:46 4
58 *1:44 *1:45 1.47
59 *1:43 *1:44 4
60 *1:42 *1:43 1.89
61 *1:40 *1:42 4
62 *1:38 *69:CK 4
63 *1:37 *1:40 0.21
64 *1:36 *72:CK 4
65 *1:35 *1:38 1.89
66 *1:34 *1:37 4
67 *1:33 *1:36 4
68 *50:O *1:35 4
69 *50:O *1:34 4
70 *1:31 *1:33 4
71 *1:30 *70:CK 4
72 *1:27 *1:31 2.31
73 *1:26 *1:30 4
74 *1:25 *54:CK 4
75 *1:24 *50:O 4
76 *1:23 *1:27 4
77 *1:23 *1:26 1.05
78 *1:22 *1:25 4
79 *1:21 *1:24 4
80 *1:20 *1:23 0.42
81 *1:19 *1:22 4
82 *1:18 *1:21 0.21
83 *1:17 *1:20 4
84 *1:16 *1:19 1.68
85 *1:16 *1:18 4
86 *1:15 *1:17 1.89
87 *1:15 *1:16 2.31
88 *1:12 *1:15 4
89 *1:11 *59:CK 4
90 *1:10 *65:CK 4
91 *1:9 *1:12 3.15
92 *1:9 *1:11 4
93 *1:8 *1:10 4
94 *1:7 *1:9 0.63
95 *1:6 *1:8 0.63
96 *1:4 *1:7 4
97 *1:3 *1:6 4
98 *1:2 *87:CK 4
99 *1:1 *1:4 6.3
100 *1:1 *1:3 1.89
101 *1:0 *1:2 4
102 *1:0 *1:1 4
*END

*D_NET *2 0.000926438

*CONN
*I *51:O O *C 8 14 *L 0 *D INVCKX20
*I *50:I I *C 21 15 *L 0.0293 *D INVCKX16

*CAP
1 *2:2 0.000436057
2 *2:3 0.000436057
3 *2:4 2.71619e-05
4 *2:5 2.71619e-05

*RES
1 *2:5 *50:I 4
2 *2:4 *2:5 0.42
3 *2:3 *2:4 4
4 *2:2 *2:3 6.72
5 *2:1 *2:2 4
6 *51:O *2:1 4
*END

*D_NET *3 0.00136204

*CONN
*P *3 I *C 0 17 *L 0
*I *51:I I *C 13 15 *L 0.0366 *D INVCKX20

*CAP
1 *3:1 9.50665e-05
2 *3:2 9.50665e-05
3 *3:3 0.000585952
4 *3:4 0.000585952

*RES
1 *3:5 *51:I 4
2 *3:4 *3:5 4
3 *3:3 *3:4 9.03
4 *3:2 *3:3 4
5 *3:1 *3:2 1.47
6 *3 *3:1 4
*END

*D_NET *4 0.000490564

*CONN
*P *4 I *C 0 18 *L 0
*I *91:I I *C 5 18 *L 0.00276 *D INVX1

*CAP
1 *4 0.000245282
2 *4:1 0.000245282

*RES
1 *4:2 *91:I 4
2 *4:1 *4:2 4
3 *4 *4:1 3.78
*END

*D_NET *5 0.0018731

*CONN
*I *78:B1 I *C 22 26 *L 0.00229 *D OAI12X1
*P *5 I *C 23 35 *L 0
*I *79:B1 I *C 25 26 *L 0.00229 *D OAI12X1
*I *80:B1 I *C 20 20 *L 0.00229 *D OAI12X1

*CAP
1 *5:0 1.29702e-05
2 *78:B1 1.29702e-05
3 *5:2 5.43237e-05
4 *5:3 2.72536e-05
5 *5:4 5.43237e-05
6 *5:5 0.000122641
7 *5:6 8.17607e-05
8 *5:7 0.000448171
9 *5:8 9.53875e-05
10 *5:9 8.17607e-05
11 *5 0.000448171
12 *5:12 0.000203714
13 *5:13 1.29702e-05
14 *5:14 0.000203714
15 *79:B1 1.29702e-05

*RES
1 *5:14 *80:B1 4
2 *5:13 *79:B1 0.268333
3 *5:12 *5:14 3.15
4 *5:11 *5:13 4
5 *5:9 *5:12 4
6 *5:8 *5:11 4
7 *5:7 *5 6.93
8 *5:6 *5:9 1.26
9 *5:5 *5:8 1.47
10 *5:5 *5:7 4
11 *5:4 *5:6 4
12 *5:3 *5:5 0.42
13 *5:2 *5:4 0.84
14 *5:2 *5:3 4
15 *5:0 *5:2 4
16 *5:0 *78:B1 0.268333
*END

*D_NET *6 0.00146552

*CONN
*P *6 I *C 21 35 *L 0
*I *80:B2 I *C 21 20 *L 0.00262 *D OAI12X1

*CAP
1 *6 0.000339523
2 *6:1 0.000353104
3 *6:2 0.000380266
4 *6:3 0.000366685
5 *6:4 1.29702e-05
6 *80:B2 1.29702e-05

*RES
1 *6:4 *80:B2 0.268333
2 *6:3 *6:4 4
3 *6:2 *6:3 5.67
4 *6:1 *6:2 0.21
5 *6 *6:1 5.25
*END

*D_NET *7 0.00086918

*CONN
*P *7 I *C 24 35 *L 0
*I *79:B2 I *C 24 26 *L 0.00262 *D OAI12X1

*CAP
1 *7 0.00043459
2 *7:1 0.00043459

*RES
1 *7:1 *79:B2 4
2 *7 *7:1 6.72
*END

*D_NET *8 0.00086918

*CONN
*P *8 I *C 22 35 *L 0
*I *78:B2 I *C 22 26 *L 0.00262 *D OAI12X1

*CAP
1 *8 0.00043459
2 *8:1 0.00043459

*RES
1 *8:1 *78:B2 4
2 *8 *8:1 6.72
*END

*D_NET *9 0.00168413

*CONN
*I *60:O O *C 21 18 *L 0.0017 *D INVTX1
*P *9 O *C 21 35 *L 0

*CAP
1 *9:1 0.000135809
2 *9:2 0.000135809
3 *9:3 1.36268e-05
4 *9:4 1.36268e-05
5 *9:5 0.000339523
6 *9:6 0.000353104
7 *9:7 0.000353104
8 *9 0.000339523

*RES
1 *9:7 *9 5.25
2 *9:6 *9:7 0.21
3 *9:5 *9:6 5.25
4 *9:4 *9:5 4
5 *9:3 *9:4 0.21
6 *9:2 *9:3 4
7 *9:1 *9:2 2.1
8 *60:O *9:1 4
*END

*D_NET *10 0.000862143

*CONN
*I *61:O O *C 29 25 *L 0.0017 *D INVTX1
*P *10 O *C 38 25 *L 0

*CAP
1 *61:O 0.000363167
2 *10:1 0.000363167
3 *10:2 1.35809e-05
4 *10:3 1.35809e-05
5 *10:4 5.43237e-05
6 *10 5.43237e-05

*RES
1 *10:4 *10 0.84
2 *10:3 *10:4 4
3 *10:2 *10:3 0.21
4 *10:1 *10:2 4
5 *61:O *10:1 7.51333
*END

*D_NET *11 0.000867958

*CONN
*I *62:O O *C 19 27 *L 0.0017 *D INVTX1
*P *11 O *C 19 35 *L 0

*CAP
1 *62:O 1.29702e-05
2 *11:1 1.29702e-05
3 *11:2 0.000203714
4 *11:3 0.000217295
5 *11:4 0.000217295
6 *11 0.000203714

*RES
1 *11:4 *11 3.15
2 *11:3 *11:4 0.21
3 *11:2 *11:3 3.15
4 *11:1 *11:2 4
5 *62:O *11:1 0.268333
*END

*D_NET *12 0.000897229

*CONN
*I *52:D I *C 6 12 *L 0.00173 *D DFCLRBX1
*I *52:QB O *C 13 11 *L 0 *D DFCLRBX1
*I *76:B1 I *C 12 9 *L 0.00176 *D OR4B2XLP

*CAP
1 *12:0 0.000286163
2 *12:1 2.71619e-05
3 *12:2 0.000313416
4 *12:3 2.71619e-05
5 *12:4 1.36268e-05
6 *12:5 1.36268e-05
7 *12:6 1.29702e-05
8 *12:8 9.50665e-05
9 *52:D 1.29702e-05
10 *12:11 9.50665e-05

*RES
1 *12:11 *76:B1 4
2 *12:8 *12:11 1.47
3 *12:7 *52:QB 4
4 *12:6 *52:D 0.268333
5 *12:5 *12:8 4
6 *12:4 *12:7 4
7 *12:3 *12:6 4
8 *12:2 *12:5 0.21
9 *12:2 *12:4 0.21
10 *12:1 *12:3 0.42
11 *12:0 *12:2 4.41
12 *12:0 *12:1 4
*END

*D_NET *13 0.00106002

*CONN
*I *73:B1 I *C 7 9 *L 0.00192 *D AN2B1XLP
*I *56:D I *C 7 6 *L 0.00173 *D DFCLRBX1
*I *76:B2 I *C 13 9 *L 0.00198 *D OR4B2XLP
*I *56:QB O *C 13 7 *L 0 *D DFCLRBX1

*CAP
1 *13:0 0.000122228
2 *13:1 0.000122228
3 *13:2 1.29702e-05
4 *13:3 0.000286163
5 *56:D 1.29702e-05
6 *13:6 0.000286163
7 *13:7 9.50665e-05
8 *13:9 0.000108647
9 *13:10 1.35809e-05

*RES
1 *13:10 *56:QB 4
2 *13:9 *13:10 0.21
3 *13:7 *13:9 1.47
4 *13:7 *76:B2 4
5 *13:6 *13:7 4
6 *13:3 *13:6 4.41
7 *13:2 *56:D 0.268333
8 *13:1 *73:B1 4
9 *13:1 *13:3 4
10 *13:0 *13:2 4
11 *13:0 *13:1 1.89
*END

*D_NET *14 0.000652681

*CONN
*I *69:QB O *C 13 12 *L 0 *D DFCLRBX1
*I *69:D I *C 19 12 *L 0.00173 *D DFCLRBX1

*CAP
1 *14:2 0.000299789
2 *14:3 0.000299789
3 *14:4 1.35809e-05
4 *14:5 1.35809e-05
5 *14:6 1.29702e-05
6 *69:D 1.29702e-05

*RES
1 *14:6 *69:D 0.268333
2 *14:5 *14:6 4
3 *14:4 *14:5 0.21
4 *14:3 *14:4 4
5 *14:2 *14:3 4.62
6 *14:1 *14:2 4
7 *69:QB *14:1 4
*END

*D_NET *15 0.0011383

*CONN
*I *69:LD I *C 19 12 *L 0.00335 *D DFCLRBX1
*I *70:Q O *C 19 10 *L 0 *D QDFFX1
*I *84:I1 I *C 15 9 *L 0.00234 *D ND2X1
*I *76:I2 I *C 14 9 *L 0.00178 *D OR4B2XLP
*I *85:I1 I *C 11 9 *L 0.00161 *D AN2X1

*CAP
1 *15:0 0.000122228
2 *15:1 0.000122228
3 *15:4 0.000190775
4 *15:5 0.000190775
5 *15:6 2.71619e-05
6 *15:8 2.71619e-05
7 *15:9 6.81339e-05
8 *15:10 0.000163521
9 *15:12 9.53875e-05
10 *15:14 1.35809e-05
11 *15:15 1.35809e-05
12 *15:16 5.1881e-05
13 *85:I1 5.1881e-05

*RES
1 *15:16 *85:I1 1.07333
2 *15:15 *15:16 4
3 *15:14 *15:15 0.21
4 *15:12 *15:14 4
5 *15:11 *76:I2 4
6 *15:10 *15:12 1.47
7 *15:10 *15:11 4
8 *15:9 *15:10 1.05
9 *15:8 *15:9 4
10 *15:6 *15:8 0.42
11 *15:6 *84:I1 4
12 *15:5 *15:6 4
13 *15:4 *15:5 2.94
14 *15:1 *15:4 4
15 *15:1 *70:Q 4
16 *15:0 *69:LD 4
17 *15:0 *15:1 1.89
*END

*D_NET *16 0.000951874

*CONN
*I *59:D I *C 27 12 *L 0.00173 *D DFCLRBX1
*I *59:QB O *C 21 13 *L 0 *D DFCLRBX1
*I *81:B1 I *C 29 12 *L 0.00241 *D OR3B2X1

*CAP
1 *16:0 2.71619e-05
2 *16:1 0.000395062
3 *16:2 2.71619e-05
4 *16:3 9.52729e-05
5 *16:4 0.000299789
6 *16:5 1.29702e-05
7 *16:6 4.07428e-05
8 *59:D 1.29702e-05
9 *16:9 4.07428e-05

*RES
1 *16:9 *81:B1 4
2 *16:7 *59:QB 4
3 *16:6 *16:9 0.63
4 *16:5 *59:D 0.268333
5 *16:4 *16:7 4
6 *16:3 *16:6 4
7 *16:2 *16:5 4
8 *16:1 *16:4 4.62
9 *16:1 *16:3 1.47
10 *16:0 *16:2 0.42
11 *16:0 *16:1 4
*END

*D_NET *17 0.00169245

*CONN
*I *72:QB O *C 26 7 *L 0 *D DFCLRBX1
*I *81:B2 I *C 29 12 *L 0.00272 *D OR3B2X1
*I *89:B1 I *C 31 9 *L 0.00192 *D AN2B1XLP
*I *72:D I *C 20 6 *L 0.00173 *D DFCLRBX1

*CAP
1 *72:QB 0.000129702
2 *17:2 0.000299789
3 *17:3 0.000207524
4 *17:4 0.000299789
5 *17:5 7.78215e-05
6 *17:6 0.000230876
7 *17:7 1.35809e-05
8 *17:8 8.14856e-05
9 *17:9 0.000230876
10 *17:10 1.35809e-05
11 *17:11 8.14856e-05
12 *17:13 1.29702e-05
13 *72:D 1.29702e-05

*RES
1 *17:13 *72:D 0.268333
2 *17:11 *89:B1 4
3 *17:10 *17:13 4
4 *17:9 *81:B2 4
5 *17:8 *17:11 1.26
6 *17:7 *17:10 0.21
7 *17:6 *17:9 3.57
8 *17:5 *17:8 4
9 *17:4 *17:7 4
10 *17:3 *17:6 4
11 *17:3 *17:5 1.61
12 *17:2 *17:4 4.62
13 *72:QB *17:3 2.68333
14 *17:1 *17:2 4
15 *72:QB *17:1 4
*END

*D_NET *18 0.00179246

*CONN
*I *72:LD I *C 21 6 *L 0.00335 *D DFCLRBX1
*I *83:I1 I *C 18 7 *L 0.00234 *D ND2X1
*I *67:Q O *C 17 6 *L 0 *D QDFFX1
*I *89:I1 I *C 30 9 *L 0.00132 *D AN2B1XLP
*I *81:I1 I *C 30 12 *L 0.00181 *D OR3B2X1

*CAP
1 *18:0 2.71619e-05
2 *18:1 0.000558446
3 *18:2 2.71619e-05
4 *18:3 0.000435805
5 *18:4 0.000149895
6 *18:6 0.000108647
7 *18:8 2.72536e-05
8 *18:9 0.000244457
9 *18:12 3.89107e-05
10 *18:13 0.000135809
11 *89:I1 3.89107e-05

*RES
1 *18:13 *81:I1 4
2 *18:12 *89:I1 0.805
3 *18:11 *67:Q 4
4 *18:9 *18:13 2.1
5 *18:9 *18:12 4
6 *18:8 *18:11 4
7 *18:7 *83:I1 4
8 *18:6 *18:9 1.68
9 *18:4 *18:8 0.42
10 *18:4 *18:7 4
11 *18:3 *18:6 4
12 *18:2 *72:LD 4
13 *18:1 *18:4 1.89
14 *18:1 *18:3 6.72
15 *18:0 *18:2 0.42
16 *18:0 *18:1 4
*END

*D_NET *19 0.0009243

*CONN
*I *68:D I *C 6 26 *L 0.00173 *D DFCLRBX1
*I *68:QB O *C 13 26 *L 0 *D DFCLRBX1
*I *90:B1 I *C 7 23 *L 0.00201 *D OR2B1XLP

*CAP
1 *19:0 1.35809e-05
2 *19:1 5.43237e-05
3 *19:2 1.29702e-05
4 *19:3 0.000299789
5 *19:4 5.43237e-05
6 *68:D 1.29702e-05
7 *19:6 0.000299789
8 *19:7 9.50665e-05
9 *19:9 8.14856e-05

*RES
1 *19:9 *90:B1 4
2 *19:8 *68:QB 4
3 *19:7 *19:9 1.26
4 *19:6 *19:8 4
5 *19:4 *19:7 0.21
6 *19:3 *19:6 4.62
7 *19:2 *68:D 0.268333
8 *19:1 *19:4 0.63
9 *19:1 *19:3 4
10 *19:0 *19:2 4
11 *19:0 *19:1 0.21
*END

*D_NET *20 0.000813147

*CONN
*I *90:I1 I *C 6 23 *L 0.00118 *D OR2B1XLP
*I *82:I1 I *C 6 20 *L 0.00234 *D ND2X1
*I *71:Q O *C 8 21 *L 0 *D QDFFX1
*I *68:LD I *C 7 26 *L 0.00335 *D DFCLRBX1

*CAP
1 *20:0 0.000122228
2 *20:1 2.59405e-05
3 *20:2 0.000122228
4 *90:I1 2.59405e-05
5 *20:4 8.17607e-05
6 *20:6 8.17607e-05
7 *20:7 0.000108647
8 *20:9 0.000108647
9 *20:11 2.72536e-05
10 *20:12 2.72536e-05
11 *20:13 4.07428e-05
12 *20:14 4.07428e-05

*RES
1 *20:14 *68:LD 4
2 *20:13 *20:14 0.63
3 *20:12 *20:13 4
4 *20:11 *20:12 0.42
5 *20:9 *20:11 4
6 *20:8 *71:Q 4
7 *20:7 *20:9 1.68
8 *20:6 *20:8 4
9 *90:I1 *20:7 4
10 *20:4 *20:6 1.26
11 *20:2 *82:I1 4
12 *20:2 *20:4 4
13 *20:1 *90:I1 0.536667
14 *20:0 *20:2 1.89
15 *20:0 *20:1 4
*END

*D_NET *21 0.000677979

*CONN
*I *88:D I *C 15 18 *L 0.00122 *D DFFX1
*I *63:I2 I *C 14 18 *L 0.00277 *D ND2X1
*I *55:C2 I *C 12 18 *L 0.00266 *D OAI112X1
*I *53:Q O *C 10 17 *L 0 *D QDFFX1

*CAP
1 *21:0 5.45071e-05
2 *21:1 0.000109014
3 *21:2 2.71619e-05
4 *21:3 1.35809e-05
5 *21:4 0.000149895
6 *21:5 2.71619e-05
7 *21:6 1.35809e-05
8 *21:7 5.43237e-05
9 *21:8 9.53875e-05
10 *21:11 5.43237e-05
11 *21:12 1.35809e-05
12 *21:13 2.59405e-05
13 *21:14 1.35809e-05
14 *55:C2 2.59405e-05

*RES
1 *21:14 *53:Q 4
2 *21:13 *55:C2 0.536667
3 *21:12 *21:14 0.21
4 *21:11 *21:13 4
5 *21:8 *21:12 4
6 *21:7 *21:11 0.84
7 *21:6 *63:I2 4
8 *21:5 *88:D 4
9 *21:4 *21:8 1.47
10 *21:4 *21:7 4
11 *21:3 *21:6 0.21
12 *21:2 *21:5 0.42
13 *21:1 *21:4 0.84
14 *21:1 *21:3 4
15 *21:0 *21:2 4
16 *21:0 *21:1 0.84
*END

*D_NET *22 0.000870051

*CONN
*I *87:D I *C 27 20 *L 0.00122 *D DFFX1
*I *54:Q O *C 25 17 *L 0 *D QDFFX1
*I *66:I2 I *C 32 18 *L 0.00277 *D ND2X1
*I *58:C2 I *C 28 18 *L 0.00266 *D OAI112X1

*CAP
1 *22:0 0.000122228
2 *22:1 0.000122228
3 *22:2 0.000149826
4 *22:4 0.000217455
5 *22:5 8.17607e-05
6 *22:6 0.00014939
7 *22:7 1.35809e-05
8 *22:10 1.35809e-05

*RES
1 *22:10 *58:C2 4
2 *22:9 *66:I2 4
3 *22:8 *54:Q 4
4 *22:7 *22:10 0.21
5 *22:6 *22:9 4
6 *22:5 *22:8 4
7 *22:4 *22:7 4
8 *22:4 *22:6 2.31
9 *22:2 *22:5 1.26
10 *22:2 *22:4 1.05
11 *22:1 *87:D 4
12 *22:0 *22:2 4
13 *22:0 *22:1 1.89
*END

*D_NET *23 0.00103399

*CONN
*I *86:D I *C 15 26 *L 0.00122 *D DFFX1
*I *57:Q O *C 15 23 *L 0 *D QDFFX1
*I *77:I2 I *C 14 26 *L 0.00277 *D ND2X1
*I *64:C2 I *C 9 23 *L 0.00266 *D OAI112X1

*CAP
1 *23:0 0.000122228
2 *23:1 0.000122228
3 *23:4 5.45071e-05
4 *23:5 0.000272536
5 *23:6 0.000108647
6 *23:7 0.000218029
7 *23:8 0.000108647
8 *23:9 1.35809e-05
9 *23:11 1.35809e-05

*RES
1 *23:11 *64:C2 4
2 *23:9 *23:11 0.21
3 *23:8 *77:I2 4
4 *23:7 *23:9 4
5 *23:6 *23:8 1.68
6 *23:5 *23:7 3.36
7 *23:5 *23:6 4
8 *23:4 *23:5 0.84
9 *23:1 *23:4 4
10 *23:1 *57:Q 4
11 *23:0 *86:D 4
12 *23:0 *23:1 1.89
*END

*D_NET *24 0.000679551

*CONN
*I *89:O O *C 32 10 *L 0 *D AN2B1XLP
*I *59:LD I *C 26 12 *L 0.00335 *D DFCLRBX1

*CAP
1 *24:1 1.35809e-05
2 *24:2 1.35809e-05
3 *24:3 0.000244709
4 *24:4 0.000244709
5 *24:5 8.14856e-05
6 *24:6 8.14856e-05

*RES
1 *24:6 *59:LD 4
2 *24:5 *24:6 1.26
3 *24:4 *24:5 4
4 *24:3 *24:4 3.78
5 *24:2 *24:3 4
6 *24:1 *24:2 0.21
7 *89:O *24:1 4
*END

*D_NET *25 0.000598753

*CONN
*I *76:I1 I *C 13 9 *L 0.00214 *D OR4B2XLP
*I *85:I2 I *C 10 9 *L 0.00194 *D AN2X1
*I *69:Q O *C 14 12 *L 0 *D DFCLRBX1

*CAP
1 *25:1 2.71619e-05
2 *25:2 2.71619e-05
3 *25:3 0.000149895
4 *25:4 2.72536e-05
5 *25:5 0.000149895
6 *25:6 2.72536e-05
7 *25:8 9.50665e-05
8 *25:10 9.50665e-05

*RES
1 *25:10 *69:Q 4
2 *25:8 *25:10 1.47
3 *25:7 *85:I2 4
4 *25:6 *25:8 4
5 *25:5 *25:7 4
6 *25:4 *25:6 0.42
7 *25:3 *25:5 2.31
8 *25:2 *25:4 4
9 *25:1 *25:3 4
10 *25:1 *25:2 0.42
11 *76:I1 *25:1 4
*END

*D_NET *26 0.000774413

*CONN
*I *84:O O *C 15 9 *L 0 *D ND2X1
*I *70:D I *C 22 9 *L 0.00122 *D QDFFX1

*CAP
1 *84:O 0.000155643
2 *26:1 0.000155643
3 *26:2 1.35809e-05
4 *26:3 1.35809e-05
5 *26:4 0.000204402
6 *26:5 0.000204402
7 *26:6 1.35809e-05
8 *26:7 1.35809e-05

*RES
1 *26:7 *70:D 4
2 *26:6 *26:7 0.21
3 *26:5 *26:6 4
4 *26:4 *26:5 3.15
5 *26:3 *26:4 4
6 *26:2 *26:3 0.21
7 *26:1 *26:2 4
8 *84:O *26:1 3.22
*END

*D_NET *27 0.000435966

*CONN
*I *83:O O *C 18 7 *L 0 *D ND2X1
*I *67:D I *C 14 6 *L 0.00122 *D QDFFX1

*CAP
1 *27:1 1.35809e-05
2 *27:2 1.35809e-05
3 *27:3 0.000204402
4 *27:4 0.000204402

*RES
1 *27:5 *67:D 4
2 *27:4 *27:5 4
3 *27:3 *27:4 3.15
4 *27:2 *27:3 4
5 *27:1 *27:2 0.21
6 *83:O *27:1 4
*END

*D_NET *28 0.000490473

*CONN
*I *82:O O *C 6 20 *L 0 *D ND2X1
*I *71:D I *C 11 20 *L 0.00122 *D QDFFX1

*CAP
1 *28:2 0.000231655
2 *28:3 0.000231655
3 *28:4 1.35809e-05
4 *28:5 1.35809e-05

*RES
1 *28:5 *71:D 4
2 *28:4 *28:5 0.21
3 *28:3 *28:4 4
4 *28:2 *28:3 3.57
5 *28:1 *28:2 4
6 *82:O *28:1 4
*END

*D_NET *29 0.000513879

*CONN
*I *80:O O *C 19 20 *L 0 *D OAI12X1
*I *74:D I *C 14 20 *L 0.00122 *D DFFX1

*CAP
1 *80:O 3.89107e-05
2 *29:1 3.89107e-05
3 *29:3 0.000218029
4 *29:4 0.000218029

*RES
1 *29:5 *74:D 4
2 *29:4 *29:5 4
3 *29:3 *29:4 3.36
4 *29:2 *29:3 4
5 *29:1 *29:2 4
6 *80:O *29:1 0.805
*END

*D_NET *30 0.000401596

*CONN
*I *79:O O *C 26 25 *L 0 *D OAI12X1
*I *65:D I *C 28 23 *L 0.00122 *D DFFX1

*CAP
1 *79:O 6.48512e-05
2 *30:1 6.48512e-05
3 *30:3 4.08804e-05
4 *30:4 4.08804e-05
5 *30:5 9.50665e-05
6 *30:6 9.50665e-05

*RES
1 *30:6 *65:D 4
2 *30:5 *30:6 1.47
3 *30:4 *30:5 4
4 *30:3 *30:4 0.63
5 *30:2 *30:3 4
6 *30:1 *30:2 4
7 *79:O *30:1 1.34167
*END

*D_NET *31 0.000844127

*CONN
*I *78:O O *C 23 25 *L 0 *D OAI12X1
*I *75:D I *C 17 23 *L 0.00122 *D DFFX1

*CAP
1 *31:1 0.000108647
2 *31:2 0.000108647
3 *31:3 0.000313416
4 *31:4 0.000313416

*RES
1 *31:5 *75:D 4
2 *31:4 *31:5 4
3 *31:3 *31:4 4.83
4 *31:2 *31:3 4
5 *31:1 *31:2 1.68
6 *78:O *31:1 4
*END

*D_NET *32 0.000830813

*CONN
*I *90:O O *C 7 23 *L 0 *D OR2B1XLP
*I *64:C1 I *C 10 23 *L 0.00234 *D OAI112X1
*I *77:I1 I *C 13 26 *L 0.00234 *D ND2X1

*CAP
1 *90:O 0.000103762
2 *32:1 0.000116732
3 *32:2 2.59405e-05
4 *64:C1 1.29702e-05
5 *32:4 4.07428e-05
6 *32:5 4.07428e-05
7 *32:6 0.000149895
8 *32:7 0.000149895
9 *32:8 9.50665e-05
10 *32:9 9.50665e-05

*RES
1 *32:9 *77:I1 4
2 *32:8 *32:9 1.47
3 *32:7 *32:8 4
4 *32:6 *32:7 2.31
5 *32:5 *32:6 4
6 *32:4 *32:5 0.63
7 *64:C1 *32:4 4
8 *32:2 *64:C1 0.268333
9 *32:1 *32:2 0.268333
10 *90:O *32:1 2.14667
*END

*D_NET *33 0.000516993

*CONN
*I *77:O O *C 13 25 *L 0 *D ND2X1
*I *64:A1 I *C 11 23 *L 0.00197 *D OAI112X1

*CAP
1 *33:1 8.14856e-05
2 *33:2 8.14856e-05
3 *33:3 0.000136268
4 *33:4 0.000136268
5 *33:5 4.07428e-05
6 *33:6 4.07428e-05

*RES
1 *33:6 *64:A1 4
2 *33:5 *33:6 0.63
3 *33:4 *33:5 4
4 *33:3 *33:4 2.1
5 *33:2 *33:3 4
6 *33:1 *33:2 1.26
7 *77:O *33:1 4
*END

*D_NET *34 0.000480364

*CONN
*I *73:I1 I *C 7 9 *L 0.00132 *D AN2B1XLP
*I *85:O O *C 9 9 *L 0 *D AN2X1
*I *56:LD I *C 7 6 *L 0.00335 *D DFCLRBX1

*CAP
1 *34:0 6.79047e-05
2 *73:I1 9.07917e-05
3 *34:2 8.14856e-05
4 *85:O 9.07917e-05
5 *34:4 8.14856e-05
6 *34:5 6.79047e-05

*RES
1 *34:5 *56:LD 4
2 *34:4 *34:5 1.05
3 *34:2 *34:4 0.21
4 *73:I1 *85:O 1.87833
5 *34:0 *34:2 1.05
6 *34:0 *73:I1 4
*END

*D_NET *35 0.00024464

*CONN
*I *73:O O *C 6 10 *L 0 *D AN2B1XLP
*I *52:LD I *C 7 12 *L 0.00335 *D DFCLRBX1

*CAP
1 *35:1 1.35809e-05
2 *35:2 1.35809e-05
3 *35:3 2.72536e-05
4 *35:4 2.72536e-05
5 *35:5 8.14856e-05
6 *35:6 8.14856e-05

*RES
1 *35:6 *52:LD 4
2 *35:5 *35:6 1.26
3 *35:4 *35:5 4
4 *35:3 *35:4 0.42
5 *35:2 *35:3 4
6 *35:1 *35:2 0.21
7 *73:O *35:1 4
*END

*D_NET *36 0.00078403

*CONN
*I *58:C1 I *C 28 17 *L 0.00234 *D OAI112X1
*I *81:O O *C 28 13 *L 0 *D OR3B2X1
*I *66:I1 I *C 31 18 *L 0.00234 *D ND2X1

*CAP
1 *36:0 1.35809e-05
2 *36:1 0.000230876
3 *36:2 1.29702e-05
4 *36:3 9.50665e-05
5 *36:4 0.000217295
6 *58:C1 1.29702e-05
7 *36:6 9.50665e-05
8 *36:8 2.71619e-05
9 *36:9 2.71619e-05
10 *36:10 2.59405e-05
11 *66:I1 2.59405e-05

*RES
1 *36:10 *66:I1 0.536667
2 *36:9 *36:10 4
3 *36:8 *36:9 0.42
4 *36:6 *36:8 4
5 *36:4 *81:O 4
6 *36:3 *36:6 1.47
7 *36:2 *58:C1 0.268333
8 *36:1 *36:4 3.36
9 *36:1 *36:3 4
10 *36:0 *36:2 4
11 *36:0 *36:1 0.21
*END

*D_NET *37 0.000353333

*CONN
*I *66:O O *C 31 18 *L 0 *D ND2X1
*I *58:A1 I *C 27 17 *L 0.00197 *D OAI112X1

*CAP
1 *37:2 0.000176667
2 *37:3 0.000176667

*RES
1 *37:4 *58:A1 4
2 *37:3 *37:4 4
3 *37:2 *37:3 2.73
4 *37:1 *37:2 4
5 *66:O *37:1 4
*END

*D_NET *38 0.000109014

*CONN
*I *64:O O *C 11 24 *L 0 *D OAI112X1
*I *57:D I *C 12 23 *L 0.00122 *D QDFFX1

*CAP
1 *38:2 5.45071e-05
2 *38:3 5.45071e-05

*RES
1 *38:4 *57:D 4
2 *38:3 *38:4 4
3 *38:2 *38:3 0.84
4 *38:1 *38:2 4
5 *64:O *38:1 4
*END

*D_NET *39 0.000842293

*CONN
*I *55:C1 I *C 12 17 *L 0.00234 *D OAI112X1
*I *76:O O *C 12 10 *L 0 *D OR4B2XLP
*I *63:I1 I *C 13 18 *L 0.00234 *D ND2X1

*CAP
1 *39:1 0.000380266
2 *39:2 4.08804e-05
3 *39:3 0.000380266
4 *39:4 4.08804e-05

*RES
1 *39:6 *63:I1 4
2 *39:4 *39:6 4
3 *39:3 *76:O 4
4 *39:2 *39:4 0.63
5 *39:1 *39:3 5.88
6 *39:1 *39:2 4
7 *55:C1 *39:1 4
*END

*D_NET *40 0.000163521

*CONN
*I *63:O O *C 13 18 *L 0 *D ND2X1
*I *55:A1 I *C 11 17 *L 0.00197 *D OAI112X1

*CAP
1 *40:2 8.17607e-05
2 *40:3 8.17607e-05

*RES
1 *40:4 *55:A1 4
2 *40:3 *40:4 4
3 *40:2 *40:3 1.26
4 *40:1 *40:2 4
5 *63:O *40:1 4
*END

*D_NET *41 0.000486625

*CONN
*I *58:O O *C 27 18 *L 0 *D OAI112X1
*I *54:D I *C 22 18 *L 0.00122 *D QDFFX1

*CAP
1 *58:O 3.89107e-05
2 *41:1 3.89107e-05
3 *41:3 0.000204402
4 *41:4 0.000204402

*RES
1 *41:5 *54:D 4
2 *41:4 *41:5 4
3 *41:3 *41:4 3.15
4 *41:2 *41:3 4
5 *41:1 *41:2 4
6 *58:O *41:1 0.805
*END

*D_NET *42 0.00850625

*CONN
*I *69:RB I *C 20 12 *L 0.0019 *D DFCLRBX1
*I *84:I2 I *C 14 9 *L 0.00277 *D ND2X1
*I *72:RB I *C 20 6 *L 0.0019 *D DFCLRBX1
*I *83:I2 I *C 19 6 *L 0.00277 *D ND2X1
*I *80:A1 I *C 20 20 *L 0.00205 *D OAI12X1
*I *55:B1 I *C 12 18 *L 0.00225 *D OAI112X1
*I *78:A1 I *C 23 26 *L 0.00205 *D OAI12X1
*I *58:B1 I *C 28 18 *L 0.00225 *D OAI112X1
*I *59:RB I *C 27 12 *L 0.0019 *D DFCLRBX1
*I *79:A1 I *C 25 26 *L 0.00205 *D OAI12X1
*I *64:B1 I *C 10 24 *L 0.00225 *D OAI112X1
*I *82:I2 I *C 7 20 *L 0.00277 *D ND2X1
*I *91:O O *C 6 18 *L 0 *D INVX1
*I *68:RB I *C 6 26 *L 0.0019 *D DFCLRBX1
*I *52:RB I *C 6 12 *L 0.0019 *D DFCLRBX1
*I *56:RB I *C 6 6 *L 0.0019 *D DFCLRBX1

*CAP
1 *42:0 2.72536e-05
2 *42:1 0.000286163
3 *42:3 0.000651885
4 *42:4 0.000258909
5 *42:6 0.000380266
6 *42:7 0.000271619
7 *42:8 0.000380266
8 *42:9 2.72536e-05
9 *42:10 4.08804e-05
10 *42:11 0.000244457
11 *42:12 0.000135809
12 *42:13 0.000177148
13 *42:14 2.72536e-05
14 *42:15 1.36268e-05
15 *42:16 0.000109014
16 *42:17 1.29702e-05
17 *42:18 1.35809e-05
18 *42:19 0.00038155
19 *42:22 0.000109014
20 *84:I2 1.29702e-05
21 *42:24 1.35809e-05
22 *42:25 0.000271619
23 *42:26 0.000231655
24 *42:29 4.07428e-05
25 *42:31 0.0002852
26 *42:32 9.50665e-05
27 *42:33 0.000135809
28 *42:34 0.000109014
29 *42:35 1.35809e-05
30 *42:36 0.00014939
31 *42:37 9.50665e-05
32 *42:39 0.000109014
33 *42:41 6.79047e-05
34 *42:43 6.81339e-05
35 *42:44 1.35809e-05
36 *42:45 0.000244457
37 *42:46 6.81339e-05
38 *42:47 1.35809e-05
39 *42:48 0.000230876
40 *42:49 0.000162971
41 *42:50 1.29702e-05
42 *42:52 0.000176552
43 *79:A1 1.29702e-05
44 *42:54 0.000177148
45 *42:55 1.35809e-05
46 *42:56 0.000177148
47 *42:58 0.000203714
48 *42:59 5.43237e-05
49 *42:60 0.000258038
50 *42:61 2.72536e-05
51 *42:63 0.000122228
52 *42:64 2.72536e-05
53 *42:65 1.35809e-05
54 *42:66 8.14856e-05
55 *42:67 1.29702e-05
56 *42:68 8.14856e-05
57 *91:O 1.29702e-05
58 *42:71 0.000244457
59 *42:72 0.000448171
60 *42:73 0.000217295
61 *42:75 8.14856e-05
62 *42:76 6.79047e-05

*RES
1 *42:76 *56:RB 4
2 *42:75 *42:76 1.05
3 *42:73 *42:75 0.21
4 *42:72 *52:RB 4
5 *42:72 *42:73 3.15
6 *42:71 *42:72 3.78
7 *91:O *42:71 4
8 *42:68 *68:RB 4
9 *42:67 *91:O 0.268333
10 *42:66 *42:68 1.26
11 *42:65 *42:67 4
12 *42:64 *42:66 4
13 *42:63 *42:65 0.21
14 *42:61 *42:64 0.42
15 *42:60 *42:63 1.68
16 *42:60 *82:I2 4
17 *42:59 *42:61 4
18 *42:58 *42:60 2.31
19 *42:58 *42:59 0.84
20 *42:56 *42:58 4
21 *42:55 *64:B1 4
22 *42:54 *42:56 2.73
23 *42:52 *42:55 0.21
24 *42:52 *42:54 4
25 *42:50 *79:A1 0.268333
26 *42:49 *42:52 2.52
27 *42:48 *59:RB 4
28 *42:47 *42:50 4
29 *42:46 *42:49 4
30 *42:45 *42:48 3.57
31 *42:44 *42:47 0.21
32 *42:43 *42:46 1.05
33 *42:41 *42:45 0.21
34 *42:39 *42:44 4
35 *42:37 *42:43 4
36 *42:36 *58:B1 4
37 *42:36 *42:41 0.84
38 *42:35 *78:A1 4
39 *42:34 *42:39 1.68
40 *42:33 *55:B1 4
41 *42:33 *42:37 1.47
42 *42:32 *42:36 1.47
43 *42:31 *42:35 0.21
44 *42:31 *42:34 4
45 *42:29 *42:33 0.63
46 *42:26 *42:32 4
47 *42:25 *42:31 4.2
48 *42:24 *80:A1 4
49 *42:22 *42:29 4
50 *42:21 *83:I2 4
51 *42:20 *72:RB 4
52 *42:19 *42:26 3.57
53 *42:19 *42:25 4
54 *42:18 *42:24 0.21
55 *42:17 *84:I2 0.268333
56 *42:16 *42:22 1.68
57 *42:15 *42:21 4
58 *42:14 *42:20 4
59 *42:13 *42:19 2.31
60 *42:13 *42:18 4
61 *42:12 *42:17 4
62 *42:11 *42:16 4
63 *42:10 *42:15 0.21
64 *42:10 *42:14 0.42
65 *42:9 *42:13 0.42
66 *42:8 *42:12 2.1
67 *42:8 *42:11 3.78
68 *42:7 *42:10 4
69 *42:6 *42:9 4
70 *42:4 *42:8 4
71 *42:3 *42:7 4.2
72 *42:3 *42:6 5.88
73 *42:2 *69:RB 4
74 *42:1 *42:4 3.99
75 *42:1 *42:3 4
76 *42:0 *42:2 4
77 *42:0 *42:1 0.42
*END

*D_NET *43 0.000408712

*CONN
*I *55:O O *C 11 18 *L 0 *D OAI112X1
*I *53:D I *C 7 18 *L 0.00122 *D QDFFX1

*CAP
1 *43:2 0.000190775
2 *43:3 0.000190775
3 *43:4 1.35809e-05
4 *43:5 1.35809e-05

*RES
1 *43:5 *53:D 4
2 *43:4 *43:5 0.21
3 *43:3 *43:4 4
4 *43:2 *43:3 2.94
5 *43:1 *43:2 4
6 *55:O *43:1 4
*END

*D_NET *44 0.000244457

*CONN
*I *75:QB O *C 21 24 *L 0 *D DFFX1
*I *62:E I *C 20 25 *L 0.00307 *D INVTX1

*CAP
1 *44:1 6.79047e-05
2 *44:2 8.14856e-05
3 *44:3 5.43237e-05
4 *44:4 4.07428e-05

*RES
1 *44:4 *62:E 4
2 *44:3 *44:4 0.63
3 *44:2 *44:3 0.21
4 *44:1 *44:2 1.05
5 *75:QB *44:1 4
*END

*D_NET *45 0.000570445

*CONN
*I *65:QB O *C 32 24 *L 0 *D DFFX1
*I *61:E I *C 28 25 *L 0.00307 *D INVTX1

*CAP
1 *45:1 9.50665e-05
2 *45:2 9.50665e-05
3 *45:3 0.000190156
4 *45:4 0.000190156

*RES
1 *45:5 *61:E 4
2 *45:4 *45:5 4
3 *45:3 *45:4 2.94
4 *45:2 *45:3 4
5 *45:1 *45:2 1.47
6 *65:QB *45:1 4
*END

*D_NET *46 0.000349715

*CONN
*I *74:QB O *C 18 20 *L 0 *D DFFX1
*I *60:E I *C 20 18 *L 0.00307 *D INVTX1

*CAP
1 *74:QB 3.89107e-05
2 *46:1 3.89107e-05
3 *46:2 6.79047e-05
4 *46:3 6.79047e-05
5 *46:4 4.08804e-05
6 *46:5 4.08804e-05
7 *46:6 2.71619e-05
8 *46:7 2.71619e-05

*RES
1 *46:7 *60:E 4
2 *46:6 *46:7 0.42
3 *46:5 *46:6 4
4 *46:4 *46:5 0.63
5 *46:3 *46:4 4
6 *46:2 *46:3 1.05
7 *46:1 *46:2 4
8 *74:QB *46:1 0.805
*END

*D_NET *47 0.000109014

*CONN
*I *86:QB O *C 19 26 *L 0 *D DFFX1
*I *62:I I *C 20 26 *L 0.00267 *D INVTX1

*CAP
1 *47:2 5.45071e-05
2 *47:3 5.45071e-05

*RES
1 *47:4 *62:I 4
2 *47:3 *47:4 4
3 *47:2 *47:3 0.84
4 *47:1 *47:2 4
5 *86:QB *47:1 4
*END

*D_NET *48 0.000760532

*CONN
*I *87:QB O *C 31 21 *L 0 *D DFFX1
*I *61:I I *C 28 26 *L 0.00267 *D INVTX1

*CAP
1 *48:1 1.35809e-05
2 *48:2 1.35809e-05
3 *48:3 0.000135809
4 *48:4 0.000135809
5 *48:5 0.000230876
6 *48:6 0.000230876

*RES
1 *48:6 *61:I 4
2 *48:5 *48:6 3.57
3 *48:4 *48:5 4
4 *48:3 *48:4 2.1
5 *48:2 *48:3 4
6 *48:1 *48:2 0.21
7 *87:QB *48:1 4
*END

*D_NET *49 0.000133642

*CONN
*I *88:QB O *C 19 18 *L 0 *D DFFX1
*I *60:I I *C 20 18 *L 0.00267 *D INVTX1

*CAP
1 *88:QB 2.59405e-05
2 *49:1 2.59405e-05
3 *49:3 4.08804e-05
4 *49:4 4.08804e-05

*RES
1 *49:5 *60:I 4
2 *49:4 *49:5 4
3 *49:3 *49:4 0.63
4 *49:2 *49:3 4
5 *49:1 *49:2 4
6 *88:QB *49:1 0.536667
*END

